octanal
  -OEChem-10241310033D

 25 24  0     0  0  0  0  0  0999 V2000
   -2.3564    7.9468    3.6756 C   0  0  0  0  0  0  0  0  0  0  0  0
   -0.8549   -0.2439    0.5419 C   0  0  0  0  0  0  0  0  0  0  0  0
   -1.4534    6.7620    3.4267 C   0  0  0  0  0  0  0  0  0  0  0  0
   -1.7807    0.9400    0.7718 C   0  0  0  0  0  0  0  0  0  0  0  0
   -2.1478    5.6525    2.6422 C   0  0  0  0  0  0  0  0  0  0  0  0
   -1.0725    2.0677    1.5223 C   0  0  0  0  0  0  0  0  0  0  0  0
   -1.2756    4.4101    2.4444 C   0  0  0  0  0  0  0  0  0  0  0  0
   -1.9972    3.2706    1.7215 C   0  0  0  0  0  0  0  0  0  0  0  0
   -3.5292    8.0186    3.3244 O   0  0  0  0  0  0  0  0  0  0  0  0
   -1.8816    8.7882    4.2095 H   0  0  0  0  0  0  0  0  0  0  0  0
    0.0159    0.0489   -0.0533 H   0  0  0  0  0  0  0  0  0  0  0  0
   -1.3820   -1.0384    0.0046 H   0  0  0  0  0  0  0  0  0  0  0  0
   -0.4995   -0.6545    1.4924 H   0  0  0  0  0  0  0  0  0  0  0  0
   -1.1246    6.3906    4.4033 H   0  0  0  0  0  0  0  0  0  0  0  0
   -0.5770    7.1346    2.8875 H   0  0  0  0  0  0  0  0  0  0  0  0
   -2.6564    0.6065    1.3406 H   0  0  0  0  0  0  0  0  0  0  0  0
   -2.1426    1.3065   -0.1959 H   0  0  0  0  0  0  0  0  0  0  0  0
   -2.4741    6.0348    1.6670 H   0  0  0  0  0  0  0  0  0  0  0  0
   -3.0591    5.3506    3.1741 H   0  0  0  0  0  0  0  0  0  0  0  0
   -0.7303    1.7010    2.4979 H   0  0  0  0  0  0  0  0  0  0  0  0
   -0.1815    2.3783    0.9629 H   0  0  0  0  0  0  0  0  0  0  0  0
   -0.3672    4.6825    1.8933 H   0  0  0  0  0  0  0  0  0  0  0  0
   -0.9520    4.0592    3.4323 H   0  0  0  0  0  0  0  0  0  0  0  0
   -2.8765    2.9654    2.3014 H   0  0  0  0  0  0  0  0  0  0  0  0
   -2.3547    3.6128    0.7439 H   0  0  0  0  0  0  0  0  0  0  0  0
  1  3  1  0  0  0  0
  1  9  2  0  0  0  0
  2  4  1  0  0  0  0
  3  5  1  0  0  0  0
  4  6  1  0  0  0  0
  5  7  1  0  0  0  0
  6  8  1  0  0  0  0
  7  8  1  0  0  0  0
  1 10  1  0  0  0  0
  2 11  1  0  0  0  0
  2 12  1  0  0  0  0
  2 13  1  0  0  0  0
  3 14  1  0  0  0  0
  3 15  1  0  0  0  0
  4 16  1  0  0  0  0
  4 17  1  0  0  0  0
  5 18  1  0  0  0  0
  5 19  1  0  0  0  0
  6 20  1  0  0  0  0
  6 21  1  0  0  0  0
  7 22  1  0  0  0  0
  7 23  1  0  0  0  0
  8 24  1  0  0  0  0
  8 25  1  0  0  0  0
M  END
$$$$
