14_dimethyl_piperazine
  -OEChem-10241310033D

 22 22  0     0  0  0  0  0  0999 V2000
    0.9733   -0.4226   -0.2775 C   0  0  0  0  0  0  0  0  0  0  0  0
    0.7469   -1.4824   -1.3611 C   0  0  0  0  0  0  0  0  0  0  0  0
    2.8769   -1.6606    0.5350 C   0  0  0  0  0  0  0  0  0  0  0  0
    2.6493   -2.7208   -0.5481 C   0  0  0  0  0  0  0  0  0  0  0  0
    1.8318    0.0009    1.9360 C   0  0  0  0  0  0  0  0  0  0  0  0
    1.7938   -3.1419   -2.7630 C   0  0  0  0  0  0  0  0  0  0  0  0
    1.6130   -1.0119    0.9052 N   0  0  0  0  0  0  0  0  0  0  0  0
    2.0113   -2.1302   -1.7310 N   0  0  0  0  0  0  0  0  0  0  0  0
    1.5833    0.3969   -0.6816 H   0  0  0  0  0  0  0  0  0  0  0  0
    0.0018    0.0021    0.0036 H   0  0  0  0  0  0  0  0  0  0  0  0
    0.0182   -2.2248   -1.0079 H   0  0  0  0  0  0  0  0  0  0  0  0
    0.3134   -0.9934   -2.2419 H   0  0  0  0  0  0  0  0  0  0  0  0
    3.3096   -2.1500    1.4158 H   0  0  0  0  0  0  0  0  0  0  0  0
    3.6061   -0.9188    0.1814 H   0  0  0  0  0  0  0  0  0  0  0  0
    3.6207   -3.1457   -0.8289 H   0  0  0  0  0  0  0  0  0  0  0  0
    2.0382   -3.5396   -0.1440 H   0  0  0  0  0  0  0  0  0  0  0  0
    0.8804    0.3157    2.3742 H   0  0  0  0  0  0  0  0  0  0  0  0
    2.3268    0.8762    1.5063 H   0  0  0  0  0  0  0  0  0  0  0  0
    2.4684   -0.3996    2.7299 H   0  0  0  0  0  0  0  0  0  0  0  0
    2.1079   -4.1275   -2.4080 H   0  0  0  0  0  0  0  0  0  0  0  0
    2.3657   -2.8939   -3.6615 H   0  0  0  0  0  0  0  0  0  0  0  0
    0.7344   -3.1866   -3.0307 H   0  0  0  0  0  0  0  0  0  0  0  0
  1  2  1  0  0  0  0
  1  7  1  0  0  0  0
  2  8  1  0  0  0  0
  3  4  1  0  0  0  0
  3  7  1  0  0  0  0
  4  8  1  0  0  0  0
  5  7  1  0  0  0  0
  6  8  1  0  0  0  0
  1  9  1  0  0  0  0
  1 10  1  0  0  0  0
  2 11  1  0  0  0  0
  2 12  1  0  0  0  0
  3 13  1  0  0  0  0
  3 14  1  0  0  0  0
  4 15  1  0  0  0  0
  4 16  1  0  0  0  0
  5 17  1  0  0  0  0
  5 18  1  0  0  0  0
  5 19  1  0  0  0  0
  6 20  1  0  0  0  0
  6 21  1  0  0  0  0
  6 22  1  0  0  0  0
M  END
$$$$
