methyl_chloroacetate
  -OEChem-10241310033D

 11 10  0     0  0  0  0  0  0999 V2000
    1.4126   -1.6000    1.6012 C   0  0  0  0  0  0  0  0  0  0  0  0
   -0.3568   -0.1352    1.0261 C   0  0  0  0  0  0  0  0  0  0  0  0
    2.5225   -1.7683    2.6029 C   0  0  0  0  0  0  0  0  0  0  0  0
    1.1538   -2.3617    0.6799 O   0  0  0  0  0  0  0  0  0  0  0  0
    0.7387   -0.4465    1.8931 O   0  0  0  0  0  0  0  0  0  0  0  0
    3.4108   -3.2680    2.2839 Cl  0  0  0  0  0  0  0  0  0  0  0  0
   -0.2997   -0.7559    0.1285 H   0  0  0  0  0  0  0  0  0  0  0  0
   -0.3179    0.9225    0.7537 H   0  0  0  0  0  0  0  0  0  0  0  0
   -1.2937   -0.3405    1.5493 H   0  0  0  0  0  0  0  0  0  0  0  0
    2.1068   -1.8290    3.6116 H   0  0  0  0  0  0  0  0  0  0  0  0
    3.2249   -0.9350    2.5226 H   0  0  0  0  0  0  0  0  0  0  0  0
  1  3  1  0  0  0  0
  1  4  2  0  0  0  0
  1  5  1  0  0  0  0
  2  5  1  0  0  0  0
  3  6  1  0  0  0  0
  2  7  1  0  0  0  0
  2  8  1  0  0  0  0
  2  9  1  0  0  0  0
  3 10  1  0  0  0  0
  3 11  1  0  0  0  0
M  END
$$$$
