n_pentylcyclopentane
  -OEChem-10241310023D

 30 30  0     0  0  0  0  0  0999 V2000
   -1.8763   -0.8503   -1.3328 C   0  0  0  0  0  0  0  0  0  0  0  0
   -0.9663   -1.9682   -0.8209 C   0  0  0  0  0  0  0  0  0  0  0  0
   -1.4103   -0.5405   -2.7521 C   0  0  0  0  0  0  0  0  0  0  0  0
   -0.0087   -2.2898   -1.9636 C   0  0  0  0  0  0  0  0  0  0  0  0
    0.0448   -0.9981   -2.7731 C   0  0  0  0  0  0  0  0  0  0  0  0
    1.6445    1.0177   -8.5869 C   0  0  0  0  0  0  0  0  0  0  0  0
    0.5910   -1.1933   -4.1767 C   0  0  0  0  0  0  0  0  0  0  0  0
    1.0975    1.2142   -7.1821 C   0  0  0  0  0  0  0  0  0  0  0  0
    0.5686    0.1113   -4.9728 C   0  0  0  0  0  0  0  0  0  0  0  0
    1.1506   -0.0821   -6.3740 C   0  0  0  0  0  0  0  0  0  0  0  0
   -2.9309   -1.1440   -1.3165 H   0  0  0  0  0  0  0  0  0  0  0  0
   -1.7720    0.0345   -0.6947 H   0  0  0  0  0  0  0  0  0  0  0  0
   -0.4083   -1.6197    0.0561 H   0  0  0  0  0  0  0  0  0  0  0  0
   -1.5364   -2.8520   -0.5173 H   0  0  0  0  0  0  0  0  0  0  0  0
   -2.0075   -1.1134   -3.4725 H   0  0  0  0  0  0  0  0  0  0  0  0
   -1.5175    0.5208   -2.9963 H   0  0  0  0  0  0  0  0  0  0  0  0
    0.9770   -2.5958   -1.5997 H   0  0  0  0  0  0  0  0  0  0  0  0
   -0.4143   -3.1102   -2.5684 H   0  0  0  0  0  0  0  0  0  0  0  0
    0.6679   -0.2626   -2.2491 H   0  0  0  0  0  0  0  0  0  0  0  0
    2.6887    0.6903   -8.5592 H   0  0  0  0  0  0  0  0  0  0  0  0
    1.5977    1.9570   -9.1468 H   0  0  0  0  0  0  0  0  0  0  0  0
    1.0633    0.2676   -9.1327 H   0  0  0  0  0  0  0  0  0  0  0  0
   -0.0062   -1.9545   -4.6920 H   0  0  0  0  0  0  0  0  0  0  0  0
    1.6171   -1.5736   -4.1135 H   0  0  0  0  0  0  0  0  0  0  0  0
    0.0631    1.5713   -7.2459 H   0  0  0  0  0  0  0  0  0  0  0  0
    1.6790    1.9931   -6.6754 H   0  0  0  0  0  0  0  0  0  0  0  0
   -0.4626    0.4767   -5.0504 H   0  0  0  0  0  0  0  0  0  0  0  0
    1.1435    0.8775   -4.4387 H   0  0  0  0  0  0  0  0  0  0  0  0
    2.1899   -0.4242   -6.2962 H   0  0  0  0  0  0  0  0  0  0  0  0
    0.5911   -0.8658   -6.8994 H   0  0  0  0  0  0  0  0  0  0  0  0
  1  2  1  0  0  0  0
  1  3  1  0  0  0  0
  2  4  1  0  0  0  0
  3  5  1  0  0  0  0
  4  5  1  0  0  0  0
  5  7  1  0  0  0  0
  6  8  1  0  0  0  0
  7  9  1  0  0  0  0
  8 10  1  0  0  0  0
  9 10  1  0  0  0  0
  1 11  1  0  0  0  0
  1 12  1  0  0  0  0
  2 13  1  0  0  0  0
  2 14  1  0  0  0  0
  3 15  1  0  0  0  0
  3 16  1  0  0  0  0
  4 17  1  0  0  0  0
  4 18  1  0  0  0  0
  5 19  1  0  0  0  0
  6 20  1  0  0  0  0
  6 21  1  0  0  0  0
  6 22  1  0  0  0  0
  7 23  1  0  0  0  0
  7 24  1  0  0  0  0
  8 25  1  0  0  0  0
  8 26  1  0  0  0  0
  9 27  1  0  0  0  0
  9 28  1  0  0  0  0
 10 29  1  0  0  0  0
 10 30  1  0  0  0  0
M  END
$$$$
