octan_1_ol
  -OEChem-10241310033D

 27 26  0     0  0  0  0  0  0999 V2000
    2.7488    3.1255   -2.5860 C   0  0  0  0  0  0  0  0  0  0  0  0
    2.2131    1.7315   -2.8714 C   0  0  0  0  0  0  0  0  0  0  0  0
    1.0300    1.7733   -3.8398 C   0  0  0  0  0  0  0  0  0  0  0  0
    0.5206    0.3647   -4.1524 C   0  0  0  0  0  0  0  0  0  0  0  0
   -0.6196    0.3419   -5.1745 C   0  0  0  0  0  0  0  0  0  0  0  0
   -1.0791   -1.0707   -5.5423 C   0  0  0  0  0  0  0  0  0  0  0  0
   -2.1998   -1.0351   -6.5803 C   0  0  0  0  0  0  0  0  0  0  0  0
   -2.6928   -2.4339   -6.9230 C   0  0  0  0  0  0  0  0  0  0  0  0
   -3.7194   -2.3327   -7.9001 O   0  0  0  0  0  0  0  0  0  0  0  0
    1.9767    3.7582   -2.1365 H   0  0  0  0  0  0  0  0  0  0  0  0
    3.0965    3.6077   -3.5053 H   0  0  0  0  0  0  0  0  0  0  0  0
    3.5921    3.0724   -1.8902 H   0  0  0  0  0  0  0  0  0  0  0  0
    1.9058    1.2642   -1.9285 H   0  0  0  0  0  0  0  0  0  0  0  0
    3.0177    1.1166   -3.2913 H   0  0  0  0  0  0  0  0  0  0  0  0
    0.2275    2.3741   -3.3975 H   0  0  0  0  0  0  0  0  0  0  0  0
    1.3338    2.2698   -4.7692 H   0  0  0  0  0  0  0  0  0  0  0  0
    0.1946   -0.1254   -3.2269 H   0  0  0  0  0  0  0  0  0  0  0  0
    1.3486   -0.2344   -4.5517 H   0  0  0  0  0  0  0  0  0  0  0  0
   -1.4692    0.9198   -4.7908 H   0  0  0  0  0  0  0  0  0  0  0  0
   -0.2743    0.8533   -6.0817 H   0  0  0  0  0  0  0  0  0  0  0  0
   -1.4363   -1.5945   -4.6486 H   0  0  0  0  0  0  0  0  0  0  0  0
   -0.2309   -1.6423   -5.9379 H   0  0  0  0  0  0  0  0  0  0  0  0
   -1.8542   -0.5385   -7.4956 H   0  0  0  0  0  0  0  0  0  0  0  0
   -3.0400   -0.4334   -6.2118 H   0  0  0  0  0  0  0  0  0  0  0  0
   -1.8816   -3.0444   -7.3323 H   0  0  0  0  0  0  0  0  0  0  0  0
   -3.1023   -2.9316   -6.0382 H   0  0  0  0  0  0  0  0  0  0  0  0
   -3.3050   -2.5047   -8.7613 H   0  0  0  0  0  0  0  0  0  0  0  0
  1  2  1  0  0  0  0
  2  3  1  0  0  0  0
  3  4  1  0  0  0  0
  4  5  1  0  0  0  0
  5  6  1  0  0  0  0
  6  7  1  0  0  0  0
  7  8  1  0  0  0  0
  8  9  1  0  0  0  0
  1 10  1  0  0  0  0
  1 11  1  0  0  0  0
  1 12  1  0  0  0  0
  2 13  1  0  0  0  0
  2 14  1  0  0  0  0
  3 15  1  0  0  0  0
  3 16  1  0  0  0  0
  4 17  1  0  0  0  0
  4 18  1  0  0  0  0
  5 19  1  0  0  0  0
  5 20  1  0  0  0  0
  6 21  1  0  0  0  0
  6 22  1  0  0  0  0
  7 23  1  0  0  0  0
  7 24  1  0  0  0  0
  8 25  1  0  0  0  0
  8 26  1  0  0  0  0
  9 27  1  0  0  0  0
M  END
$$$$
