1_iodoheptane
  -OEChem-10241310033D

 23 22  0     0  0  0  0  0  0999 V2000
   -0.6509   -1.2104   -2.1828 C   0  0  0  0  0  0  0  0  0  0  0  0
    0.5393   -0.2941   -1.9438 C   0  0  0  0  0  0  0  0  0  0  0  0
    0.3571    1.1092   -2.5260 C   0  0  0  0  0  0  0  0  0  0  0  0
    1.5847    2.0050   -2.3459 C   0  0  0  0  0  0  0  0  0  0  0  0
    1.3382    3.4035   -2.9167 C   0  0  0  0  0  0  0  0  0  0  0  0
    2.5754    4.2918   -2.7676 C   0  0  0  0  0  0  0  0  0  0  0  0
    2.3113    5.6987   -3.3026 C   0  0  0  0  0  0  0  0  0  0  0  0
    4.0586    6.9171   -3.1166 I   0  0  0  0  0  0  0  0  0  0  0  0
   -1.5368   -0.8672   -1.6409 H   0  0  0  0  0  0  0  0  0  0  0  0
   -0.8960   -1.2672   -3.2481 H   0  0  0  0  0  0  0  0  0  0  0  0
   -0.4211   -2.2223   -1.8338 H   0  0  0  0  0  0  0  0  0  0  0  0
    1.4254   -0.7479   -2.4036 H   0  0  0  0  0  0  0  0  0  0  0  0
    0.7392   -0.2289   -0.8679 H   0  0  0  0  0  0  0  0  0  0  0  0
   -0.5191    1.5855   -2.0695 H   0  0  0  0  0  0  0  0  0  0  0  0
    0.1401    1.0097   -3.5967 H   0  0  0  0  0  0  0  0  0  0  0  0
    2.4480    1.5509   -2.8471 H   0  0  0  0  0  0  0  0  0  0  0  0
    1.8336    2.0913   -1.2822 H   0  0  0  0  0  0  0  0  0  0  0  0
    0.4891    3.8663   -2.3990 H   0  0  0  0  0  0  0  0  0  0  0  0
    1.0680    3.3257   -3.9769 H   0  0  0  0  0  0  0  0  0  0  0  0
    3.4165    3.8375   -3.3062 H   0  0  0  0  0  0  0  0  0  0  0  0
    2.8626    4.3408   -1.7098 H   0  0  0  0  0  0  0  0  0  0  0  0
    1.4860    6.1621   -2.7505 H   0  0  0  0  0  0  0  0  0  0  0  0
    2.0135    5.6506   -4.3560 H   0  0  0  0  0  0  0  0  0  0  0  0
  1  2  1  0  0  0  0
  2  3  1  0  0  0  0
  3  4  1  0  0  0  0
  4  5  1  0  0  0  0
  5  6  1  0  0  0  0
  6  7  1  0  0  0  0
  7  8  1  0  0  0  0
  1  9  1  0  0  0  0
  1 10  1  0  0  0  0
  1 11  1  0  0  0  0
  2 12  1  0  0  0  0
  2 13  1  0  0  0  0
  3 14  1  0  0  0  0
  3 15  1  0  0  0  0
  4 16  1  0  0  0  0
  4 17  1  0  0  0  0
  5 18  1  0  0  0  0
  5 19  1  0  0  0  0
  6 20  1  0  0  0  0
  6 21  1  0  0  0  0
  7 22  1  0  0  0  0
  7 23  1  0  0  0  0
M  END
$$$$
