1,2,3,7-tetrachlorodibenzo-p-dioxin
  -OEChem-10241310023D

 22 24  0     0  0  0  0  0  0999 V2000
   -3.1487    0.4152    1.2196 C   0  0  0  0  0  0  0  0  0  0  0  0
   -1.8584    0.7400    0.8000 C   0  0  0  0  0  0  0  0  0  0  0  0
   -1.4367   -1.5819    0.2693 C   0  0  0  0  0  0  0  0  0  0  0  0
   -4.8168   -4.8184    0.9815 C   0  0  0  0  0  0  0  0  0  0  0  0
   -3.5799   -0.9097    1.1626 C   0  0  0  0  0  0  0  0  0  0  0  0
   -2.7266   -1.9051    0.6889 C   0  0  0  0  0  0  0  0  0  0  0  0
   -4.3856   -3.4936    1.0385 C   0  0  0  0  0  0  0  0  0  0  0  0
   -5.2389   -2.4982    1.5123 C   0  0  0  0  0  0  0  0  0  0  0  0
   -1.0039   -0.2568    0.3257 C   0  0  0  0  0  0  0  0  0  0  0  0
   -6.1071   -5.1433    1.4010 C   0  0  0  0  0  0  0  0  0  0  0  0
   -6.5287   -2.8214    1.9320 C   0  0  0  0  0  0  0  0  0  0  0  0
   -6.9616   -4.1465    1.8755 C   0  0  0  0  0  0  0  0  0  0  0  0
   -4.8561   -1.1828    1.5855 O   0  0  0  0  0  0  0  0  0  0  0  0
   -3.1093   -3.2205    0.6157 O   0  0  0  0  0  0  0  0  0  0  0  0
    0.5869    0.1501   -0.1904 Cl  0  0  0  0  0  0  0  0  0  0  0  0
   -6.5765   -6.8064    1.3031 Cl  0  0  0  0  0  0  0  0  0  0  0  0
   -7.5665   -1.5565    2.5168 Cl  0  0  0  0  0  0  0  0  0  0  0  0
   -8.5681   -4.5652    2.3960 Cl  0  0  0  0  0  0  0  0  0  0  0  0
   -3.8085    1.1959    1.5875 H   0  0  0  0  0  0  0  0  0  0  0  0
   -1.5313    1.7756    0.8481 H   0  0  0  0  0  0  0  0  0  0  0  0
   -0.7764   -2.3634   -0.0989 H   0  0  0  0  0  0  0  0  0  0  0  0
   -4.1427   -5.5868    0.6102 H   0  0  0  0  0  0  0  0  0  0  0  0
  1  2  2  0  0  0  0
  1  5  1  0  0  0  0
  2  9  1  0  0  0  0
  3  6  1  0  0  0  0
  3  9  2  0  0  0  0
  4  7  2  0  0  0  0
  4 10  1  0  0  0  0
  5  6  2  0  0  0  0
  5 13  1  0  0  0  0
  6 14  1  0  0  0  0
  7  8  1  0  0  0  0
  7 14  1  0  0  0  0
  8 11  2  0  0  0  0
  8 13  1  0  0  0  0
  9 15  1  0  0  0  0
 10 12  2  0  0  0  0
 10 16  1  0  0  0  0
 11 12  1  0  0  0  0
 11 17  1  0  0  0  0
 12 18  1  0  0  0  0
  1 19  1  0  0  0  0
  2 20  1  0  0  0  0
  3 21  1  0  0  0  0
  4 22  1  0  0  0  0
M  END
$$$$
