but_1_yne
  -OEChem-10241310043D

 10  9  0     0  0  0  0  0  0999 V2000
    1.3443   -3.0191    1.4503 C   0  0  0  0  0  0  0  0  0  0  0  0
    1.3994   -1.8207    1.4971 C   0  0  0  0  0  0  0  0  0  0  0  0
    1.0319    0.2735    0.2461 C   0  0  0  0  0  0  0  0  0  0  0  0
    1.4682   -0.3553    1.5586 C   0  0  0  0  0  0  0  0  0  0  0  0
    1.2950   -4.0821    1.4092 H   0  0  0  0  0  0  0  0  0  0  0  0
    0.0000    0.0000   -0.0000 H   0  0  0  0  0  0  0  0  0  0  0  0
    1.6716   -0.0530   -0.5811 H   0  0  0  0  0  0  0  0  0  0  0  0
    1.0887    1.3648    0.3099 H   0  0  0  0  0  0  0  0  0  0  0  0
    0.8280    0.0122    2.3683 H   0  0  0  0  0  0  0  0  0  0  0  0
    2.4923   -0.0416    1.7893 H   0  0  0  0  0  0  0  0  0  0  0  0
  1  2  3  0  0  0  0
  2  4  1  0  0  0  0
  3  4  1  0  0  0  0
  1  5  1  0  0  0  0
  3  6  1  0  0  0  0
  3  7  1  0  0  0  0
  3  8  1  0  0  0  0
  4  9  1  0  0  0  0
  4 10  1  0  0  0  0
M  END
$$$$
