pent_1_ene
  -OEChem-10241310033D

 15 14  0     0  0  0  0  0  0999 V2000
    0.7313   -0.6922    0.4155 C   0  0  0  0  0  0  0  0  0  0  0  0
    1.0744   -1.7916   -0.2651 C   0  0  0  0  0  0  0  0  0  0  0  0
   -0.5140   -3.6833   -3.2192 C   0  0  0  0  0  0  0  0  0  0  0  0
    0.6555   -2.0678   -1.6788 C   0  0  0  0  0  0  0  0  0  0  0  0
   -0.1112   -3.3865   -1.7831 C   0  0  0  0  0  0  0  0  0  0  0  0
    1.0566   -0.5325    1.4376 H   0  0  0  0  0  0  0  0  0  0  0  0
    0.1149    0.0703   -0.0478 H   0  0  0  0  0  0  0  0  0  0  0  0
    1.7029   -2.5318    0.2234 H   0  0  0  0  0  0  0  0  0  0  0  0
   -1.1621   -2.8953   -3.6159 H   0  0  0  0  0  0  0  0  0  0  0  0
   -1.0603   -4.6304   -3.2714 H   0  0  0  0  0  0  0  0  0  0  0  0
    0.3662   -3.7627   -3.8651 H   0  0  0  0  0  0  0  0  0  0  0  0
    0.0365   -1.2497   -2.0672 H   0  0  0  0  0  0  0  0  0  0  0  0
    1.5547   -2.1103   -2.3050 H   0  0  0  0  0  0  0  0  0  0  0  0
   -1.0123   -3.3474   -1.1589 H   0  0  0  0  0  0  0  0  0  0  0  0
    0.5051   -4.2120   -1.4065 H   0  0  0  0  0  0  0  0  0  0  0  0
  1  2  2  0  0  0  0
  2  4  1  0  0  0  0
  3  5  1  0  0  0  0
  4  5  1  0  0  0  0
  1  6  1  0  0  0  0
  1  7  1  0  0  0  0
  2  8  1  0  0  0  0
  3  9  1  0  0  0  0
  3 10  1  0  0  0  0
  3 11  1  0  0  0  0
  4 12  1  0  0  0  0
  4 13  1  0  0  0  0
  5 14  1  0  0  0  0
  5 15  1  0  0  0  0
M  END
$$$$
