SAMPL4_027
  -OEChem-10241310023D

 17 16  0     0  0  0  0  0  0999 V2000
   -6.1760    0.8030    0.1260 C   0  0  0  0  0  0  0  0  0  0  0  0
   -6.1870    1.7610   -1.0530 C   0  0  0  0  0  0  0  0  0  0  0  0
   -5.2920   -0.4070   -0.1310 C   0  0  0  0  0  0  0  0  0  0  0  0
   -7.0990    3.8350   -1.7790 N   0  0  0  0  0  0  0  0  0  0  0  0
   -4.4950   -2.4230    0.8500 N   0  0  0  0  0  0  0  0  0  0  0  0
   -6.4310    3.5310   -2.7680 O   0  5  0  0  0  0  0  0  0  0  0  0
   -3.9360   -2.4750   -0.2460 O   0  5  0  0  0  0  0  0  0  0  0  0
   -7.8030    4.8290   -1.5820 O   0  5  0  0  0  0  0  0  0  0  0  0
   -4.4500   -3.2170    1.7930 O   0  5  0  0  0  0  0  0  0  0  0  0
   -7.0180    2.8700   -0.7370 O   0  0  0  0  0  0  0  0  0  0  0  0
   -5.3010   -1.2610    1.0050 O   0  0  0  0  0  0  0  0  0  0  0  0
   -5.8440    1.3250    1.0330 H   0  0  0  0  0  0  0  0  0  0  0  0
   -7.2000    0.4800    0.3550 H   0  0  0  0  0  0  0  0  0  0  0  0
   -5.1780    2.1320   -1.2640 H   0  0  0  0  0  0  0  0  0  0  0  0
   -6.5820    1.2740   -1.9490 H   0  0  0  0  0  0  0  0  0  0  0  0
   -4.2570   -0.1020   -0.3140 H   0  0  0  0  0  0  0  0  0  0  0  0
   -5.6400   -0.9790   -0.9970 H   0  0  0  0  0  0  0  0  0  0  0  0
  1  2  1  0  0  0  0
  1  3  1  0  0  0  0
  2 10  1  0  0  0  0
  3 11  1  0  0  0  0
  4  6  1  0  0  0  0
  4  8  1  0  0  0  0
  4 10  1  0  0  0  0
  5  7  1  0  0  0  0
  5  9  1  0  0  0  0
  5 11  1  0  0  0  0
  1 12  1  0  0  0  0
  1 13  1  0  0  0  0
  2 14  1  0  0  0  0
  2 15  1  0  0  0  0
  3 16  1  0  0  0  0
  3 17  1  0  0  0  0
M  CHG  4   6  -1   7  -1   8  -1   9  -1
M  END
$$$$
