dimethyl_sulfone
  -OEChem-10241310023D

 11 10  0     0  0  0  0  0  0999 V2000
    1.0616    0.2382    0.0927 C   0  0  0  0  0  0  0  0  0  0  0  0
    3.0251    1.5695    1.5420 C   0  0  0  0  0  0  0  0  0  0  0  0
    0.9469    0.4790    2.6930 O   0  0  0  0  0  0  0  0  0  0  0  0
    0.6108    2.5316    1.2629 O   0  0  0  0  0  0  0  0  0  0  0  0
    1.2749    1.2694    1.5227 S   0  0  0  0  0  0  0  0  0  0  0  0
    0.2518   -0.4651    0.2930 H   0  0  0  0  0  0  0  0  0  0  0  0
    0.8133    0.8754   -0.7574 H   0  0  0  0  0  0  0  0  0  0  0  0
    1.9955   -0.2956   -0.0892 H   0  0  0  0  0  0  0  0  0  0  0  0
    3.1989    2.6115    1.2690 H   0  0  0  0  0  0  0  0  0  0  0  0
    3.3975    1.3706    2.5481 H   0  0  0  0  0  0  0  0  0  0  0  0
    3.4970    0.9012    0.8202 H   0  0  0  0  0  0  0  0  0  0  0  0
  1  5  1  0  0  0  0
  2  5  1  0  0  0  0
  3  5  2  0  0  0  0
  4  5  2  0  0  0  0
  1  6  1  0  0  0  0
  1  7  1  0  0  0  0
  1  8  1  0  0  0  0
  2  9  1  0  0  0  0
  2 10  1  0  0  0  0
  2 11  1  0  0  0  0
M  END
$$$$
