indane
  -OEChem-10241310033D

 19 20  0     0  0  0  0  0  0999 V2000
   -0.2473   -0.9840    0.3892 C   0  0  0  0  0  0  0  0  0  0  0  0
   -1.0711   -1.0949    1.5208 C   0  0  0  0  0  0  0  0  0  0  0  0
    0.2633   -2.1245   -0.2346 C   0  0  0  0  0  0  0  0  0  0  0  0
   -1.3967   -2.3478    2.0447 C   0  0  0  0  0  0  0  0  0  0  0  0
   -0.0750   -3.3628    0.2842 C   0  0  0  0  0  0  0  0  0  0  0  0
   -0.8965   -3.4734    1.4123 C   0  0  0  0  0  0  0  0  0  0  0  0
    0.3742   -4.7116   -0.1820 C   0  0  0  0  0  0  0  0  0  0  0  0
   -1.0729   -4.9062    1.8048 C   0  0  0  0  0  0  0  0  0  0  0  0
   -0.6484   -5.6225    0.5140 C   0  0  0  0  0  0  0  0  0  0  0  0
    0.0000   -0.0002   -0.0001 H   0  0  0  0  0  0  0  0  0  0  0  0
   -1.4538   -0.1957    1.9961 H   0  0  0  0  0  0  0  0  0  0  0  0
    0.9088   -2.0359   -1.1016 H   0  0  0  0  0  0  0  0  0  0  0  0
   -2.0238   -2.4305    2.9258 H   0  0  0  0  0  0  0  0  0  0  0  0
    0.3274   -4.8167   -1.2691 H   0  0  0  0  0  0  0  0  0  0  0  0
    1.3900   -4.9135    0.1725 H   0  0  0  0  0  0  0  0  0  0  0  0
   -0.4029   -5.1545    2.6343 H   0  0  0  0  0  0  0  0  0  0  0  0
   -2.1065   -5.1438    2.0717 H   0  0  0  0  0  0  0  0  0  0  0  0
   -1.5266   -5.7390   -0.1366 H   0  0  0  0  0  0  0  0  0  0  0  0
   -0.2534   -6.6256    0.7037 H   0  0  0  0  0  0  0  0  0  0  0  0
  1  2  1  0  0  0  0
  1  3  2  0  0  0  0
  2  4  2  0  0  0  0
  3  5  1  0  0  0  0
  4  6  1  0  0  0  0
  5  6  2  0  0  0  0
  5  7  1  0  0  0  0
  6  8  1  0  0  0  0
  7  9  1  0  0  0  0
  8  9  1  0  0  0  0
  1 10  1  0  0  0  0
  2 11  1  0  0  0  0
  3 12  1  0  0  0  0
  4 13  1  0  0  0  0
  7 14  1  0  0  0  0
  7 15  1  0  0  0  0
  8 16  1  0  0  0  0
  8 17  1  0  0  0  0
  9 18  1  0  0  0  0
  9 19  1  0  0  0  0
M  END
$$$$
