methyl_ethyl_ether
  -OEChem-10241310033D

 12 11  0     0  0  0  0  0  0999 V2000
    1.0662   -2.6494    2.1722 C   0  0  0  0  0  0  0  0  0  0  0  0
    0.1829    0.9026    1.8285 C   0  0  0  0  0  0  0  0  0  0  0  0
    1.2893   -1.1660    1.9689 C   0  0  0  0  0  0  0  0  0  0  0  0
    0.0353   -0.4987    2.0141 O   0  0  0  0  0  0  0  0  0  0  0  0
    2.0139   -3.1942    2.1424 H   0  0  0  0  0  0  0  0  0  0  0  0
    0.5799   -2.8383    3.1349 H   0  0  0  0  0  0  0  0  0  0  0  0
    0.4041   -3.0497    1.3973 H   0  0  0  0  0  0  0  0  0  0  0  0
    1.1930    1.2045    2.1156 H   0  0  0  0  0  0  0  0  0  0  0  0
   -0.5542    1.4314    2.4381 H   0  0  0  0  0  0  0  0  0  0  0  0
    0.0195    1.1407    0.7748 H   0  0  0  0  0  0  0  0  0  0  0  0
    1.7540   -0.9775    0.9965 H   0  0  0  0  0  0  0  0  0  0  0  0
    1.9318   -0.7627    2.7574 H   0  0  0  0  0  0  0  0  0  0  0  0
  1  3  1  0  0  0  0
  2  4  1  0  0  0  0
  3  4  1  0  0  0  0
  1  5  1  0  0  0  0
  1  6  1  0  0  0  0
  1  7  1  0  0  0  0
  2  8  1  0  0  0  0
  2  9  1  0  0  0  0
  2 10  1  0  0  0  0
  3 11  1  0  0  0  0
  3 12  1  0  0  0  0
M  END
$$$$
