di_n_propyl_sulfide
  -OEChem-10241310033D

 21 20  0     0  0  0  0  0  0999 V2000
   -0.3672   -0.3200    3.3261 C   0  0  0  0  0  0  0  0  0  0  0  0
    6.2007   -3.4172    0.6460 C   0  0  0  0  0  0  0  0  0  0  0  0
    1.1200   -0.3490    3.6472 C   0  0  0  0  0  0  0  0  0  0  0  0
    5.7179   -2.5113    1.7694 C   0  0  0  0  0  0  0  0  0  0  0  0
    1.8811   -1.2098    2.6451 C   0  0  0  0  0  0  0  0  0  0  0  0
    4.2094   -2.3030    1.6966 C   0  0  0  0  0  0  0  0  0  0  0  0
    3.6528   -1.2294    3.0399 S   0  0  0  0  0  0  0  0  0  0  0  0
   -0.7955   -1.3269    3.3596 H   0  0  0  0  0  0  0  0  0  0  0  0
   -0.9000    0.3001    4.0539 H   0  0  0  0  0  0  0  0  0  0  0  0
   -0.5453    0.0968    2.3297 H   0  0  0  0  0  0  0  0  0  0  0  0
    5.9715   -2.9843   -0.3330 H   0  0  0  0  0  0  0  0  0  0  0  0
    7.2844   -3.5563    0.7106 H   0  0  0  0  0  0  0  0  0  0  0  0
    5.7275   -4.4026    0.7059 H   0  0  0  0  0  0  0  0  0  0  0  0
    1.2528   -0.7383    4.6639 H   0  0  0  0  0  0  0  0  0  0  0  0
    1.5024    0.6788    3.6361 H   0  0  0  0  0  0  0  0  0  0  0  0
    6.2405   -1.5499    1.6952 H   0  0  0  0  0  0  0  0  0  0  0  0
    5.9954   -2.9631    2.7295 H   0  0  0  0  0  0  0  0  0  0  0  0
    1.5110   -2.2400    2.6610 H   0  0  0  0  0  0  0  0  0  0  0  0
    1.7568   -0.8214    1.6292 H   0  0  0  0  0  0  0  0  0  0  0  0
    3.9285   -1.8411    0.7447 H   0  0  0  0  0  0  0  0  0  0  0  0
    3.6830   -3.2595    1.7768 H   0  0  0  0  0  0  0  0  0  0  0  0
  1  3  1  0  0  0  0
  2  4  1  0  0  0  0
  3  5  1  0  0  0  0
  4  6  1  0  0  0  0
  5  7  1  0  0  0  0
  6  7  1  0  0  0  0
  1  8  1  0  0  0  0
  1  9  1  0  0  0  0
  1 10  1  0  0  0  0
  2 11  1  0  0  0  0
  2 12  1  0  0  0  0
  2 13  1  0  0  0  0
  3 14  1  0  0  0  0
  3 15  1  0  0  0  0
  4 16  1  0  0  0  0
  4 17  1  0  0  0  0
  5 18  1  0  0  0  0
  5 19  1  0  0  0  0
  6 20  1  0  0  0  0
  6 21  1  0  0  0  0
M  END
$$$$
