3_chloropyridine
  -OEChem-10241310023D

 11 11  0     0  0  0  0  0  0999 V2000
    0.2061   -0.4420    0.9680 C   0  0  0  0  0  0  0  0  0  0  0  0
    1.3347   -0.0801    1.6952 C   0  0  0  0  0  0  0  0  0  0  0  0
   -0.6461   -1.3849    1.5199 C   0  0  0  0  0  0  0  0  0  0  0  0
    0.6597   -1.5966    3.3985 C   0  0  0  0  0  0  0  0  0  0  0  0
    1.5731   -0.6637    2.9345 C   0  0  0  0  0  0  0  0  0  0  0  0
   -0.4477   -1.9735    2.7207 N   0  0  0  0  0  0  0  0  0  0  0  0
    2.9544   -0.2428    3.8588 Cl  0  0  0  0  0  0  0  0  0  0  0  0
   -0.0003   -0.0004   -0.0002 H   0  0  0  0  0  0  0  0  0  0  0  0
    2.0191    0.6575    1.2844 H   0  0  0  0  0  0  0  0  0  0  0  0
   -1.5407   -1.7009    0.9934 H   0  0  0  0  0  0  0  0  0  0  0  0
    0.7890   -2.0881    4.3582 H   0  0  0  0  0  0  0  0  0  0  0  0
  1  2  1  0  0  0  0
  1  3  2  0  0  0  0
  2  5  2  0  0  0  0
  3  6  1  0  0  0  0
  4  5  1  0  0  0  0
  4  6  2  0  0  0  0
  5  7  1  0  0  0  0
  1  8  1  0  0  0  0
  2  9  1  0  0  0  0
  3 10  1  0  0  0  0
  4 11  1  0  0  0  0
M  END
$$$$
