14_dimethylnaphthalene
  -OEChem-10241310033D

 24 25  0     0  0  0  0  0  0999 V2000
   -0.5687   -2.0634    0.2176 C   0  0  0  0  0  0  0  0  0  0  0  0
    0.3424   -1.0306    0.0174 C   0  0  0  0  0  0  0  0  0  0  0  0
   -0.1298   -3.3875    0.2401 C   0  0  0  0  0  0  0  0  0  0  0  0
    1.6959   -1.3179   -0.1610 C   0  0  0  0  0  0  0  0  0  0  0  0
    3.0419   -5.3094   -0.0962 C   0  0  0  0  0  0  0  0  0  0  0  0
    3.9531   -4.2766   -0.2964 C   0  0  0  0  0  0  0  0  0  0  0  0
    1.2289   -3.6952    0.0623 C   0  0  0  0  0  0  0  0  0  0  0  0
    2.1554   -2.6449   -0.1412 C   0  0  0  0  0  0  0  0  0  0  0  0
    1.6884   -5.0221    0.0821 C   0  0  0  0  0  0  0  0  0  0  0  0
    3.5141   -2.9525   -0.3190 C   0  0  0  0  0  0  0  0  0  0  0  0
    0.7627   -6.1798    0.2939 C   0  0  0  0  0  0  0  0  0  0  0  0
    4.5466   -1.8906   -0.5383 C   0  0  0  0  0  0  0  0  0  0  0  0
   -1.6223   -1.8386    0.3564 H   0  0  0  0  0  0  0  0  0  0  0  0
   -0.0002   -0.0000    0.0002 H   0  0  0  0  0  0  0  0  0  0  0  0
   -0.8724   -4.1661    0.3985 H   0  0  0  0  0  0  0  0  0  0  0  0
    2.3765   -0.4836   -0.3146 H   0  0  0  0  0  0  0  0  0  0  0  0
    3.3961   -6.3371   -0.0812 H   0  0  0  0  0  0  0  0  0  0  0  0
    5.0048   -4.5137   -0.4344 H   0  0  0  0  0  0  0  0  0  0  0  0
    1.0594   -6.7400    1.1866 H   0  0  0  0  0  0  0  0  0  0  0  0
   -0.2707   -5.8383    0.4190 H   0  0  0  0  0  0  0  0  0  0  0  0
    0.7766   -6.8563   -0.5679 H   0  0  0  0  0  0  0  0  0  0  0  0
    5.2196   -1.8367    0.3236 H   0  0  0  0  0  0  0  0  0  0  0  0
    5.1392   -2.0986   -1.4360 H   0  0  0  0  0  0  0  0  0  0  0  0
    4.0776   -0.9107   -0.6815 H   0  0  0  0  0  0  0  0  0  0  0  0
  1  2  1  0  0  0  0
  1  3  2  0  0  0  0
  2  4  2  0  0  0  0
  3  7  1  0  0  0  0
  4  8  1  0  0  0  0
  5  6  2  0  0  0  0
  5  9  1  0  0  0  0
  6 10  1  0  0  0  0
  7  8  1  0  0  0  0
  7  9  2  0  0  0  0
  8 10  2  0  0  0  0
  9 11  1  0  0  0  0
 10 12  1  0  0  0  0
  1 13  1  0  0  0  0
  2 14  1  0  0  0  0
  3 15  1  0  0  0  0
  4 16  1  0  0  0  0
  5 17  1  0  0  0  0
  6 18  1  0  0  0  0
 11 19  1  0  0  0  0
 11 20  1  0  0  0  0
 11 21  1  0  0  0  0
 12 22  1  0  0  0  0
 12 23  1  0  0  0  0
 12 24  1  0  0  0  0
M  END
$$$$
