CUP08017_AM1BCC_v1_0
  -OEChem-10241310023D

 34 34  0     0  0  0  0  0  0999 V2000
   -4.7415    1.5983    3.8728 C   0  0  0  0  0  0  0  0  0  0  0  0
   -3.1152    3.3690    3.6301 C   0  0  0  0  0  0  0  0  0  0  0  0
   -5.7665    2.4981    3.5661 C   0  0  0  0  0  0  0  0  0  0  0  0
   -4.1392    4.2694    3.3233 C   0  0  0  0  0  0  0  0  0  0  0  0
   -3.4098    2.0273    3.8948 C   0  0  0  0  0  0  0  0  0  0  0  0
   -5.4605    3.8293    3.2901 C   0  0  0  0  0  0  0  0  0  0  0  0
    0.1159   -1.9114   -1.8634 C   0  0  0  0  0  0  0  0  0  0  0  0
   -2.0143   -5.8204    3.4143 C   0  0  0  0  0  0  0  0  0  0  0  0
    0.3653   -1.6076   -0.4003 C   0  0  0  0  0  0  0  0  0  0  0  0
   -2.4772   -4.6355    2.5912 C   0  0  0  0  0  0  0  0  0  0  0  0
   -2.2377   -0.2451    2.8931 C   0  0  0  0  0  0  0  0  0  0  0  0
   -0.0282   -2.7349    0.3667 O   0  0  0  0  0  0  0  0  0  0  0  0
   -1.3894   -4.1846    1.7991 O   0  0  0  0  0  0  0  0  0  0  0  0
   -1.3856   -2.6485    1.2611 P   0  0  0  0  0  0  0  0  0  0  0  0
   -2.9606   -2.2245    0.1919 S   0  0  0  0  0  0  0  0  0  0  0  0
   -2.0822    0.9063    4.2894 S   0  0  0  0  0  0  0  0  0  0  0  0
   -0.9014   -1.4569    2.9234 S   0  0  0  0  0  0  0  0  0  0  0  0
   -6.7217    4.9358    2.9122 Cl  0  0  0  0  0  0  0  0  0  0  0  0
   -4.9985    0.5679    4.1067 H   0  0  0  0  0  0  0  0  0  0  0  0
   -2.0875    3.7253    3.6603 H   0  0  0  0  0  0  0  0  0  0  0  0
   -6.7983    2.1565    3.5518 H   0  0  0  0  0  0  0  0  0  0  0  0
   -3.8989    5.3088    3.1163 H   0  0  0  0  0  0  0  0  0  0  0  0
    0.6954   -2.7852   -2.1795 H   0  0  0  0  0  0  0  0  0  0  0  0
   -0.9389   -2.1504   -2.0338 H   0  0  0  0  0  0  0  0  0  0  0  0
    0.3913   -1.0597   -2.4914 H   0  0  0  0  0  0  0  0  0  0  0  0
   -1.6515   -6.6238    2.7646 H   0  0  0  0  0  0  0  0  0  0  0  0
   -1.1805   -5.5358    4.0648 H   0  0  0  0  0  0  0  0  0  0  0  0
   -2.8283   -6.2071    4.0335 H   0  0  0  0  0  0  0  0  0  0  0  0
   -0.2302   -0.7431   -0.0918 H   0  0  0  0  0  0  0  0  0  0  0  0
    1.4244   -1.3827   -0.2421 H   0  0  0  0  0  0  0  0  0  0  0  0
   -2.8295   -3.8379    3.2522 H   0  0  0  0  0  0  0  0  0  0  0  0
   -3.2966   -4.9373    1.9318 H   0  0  0  0  0  0  0  0  0  0  0  0
   -3.1952   -0.7685    2.9514 H   0  0  0  0  0  0  0  0  0  0  0  0
   -2.1948    0.3125    1.9536 H   0  0  0  0  0  0  0  0  0  0  0  0
  1  3  1  0  0  0  0
  1  5  2  0  0  0  0
  2  4  2  0  0  0  0
  2  5  1  0  0  0  0
  3  6  2  0  0  0  0
  4  6  1  0  0  0  0
  5 16  1  0  0  0  0
  6 18  1  0  0  0  0
  7  9  1  0  0  0  0
  8 10  1  0  0  0  0
  9 12  1  0  0  0  0
 10 13  1  0  0  0  0
 11 16  1  0  0  0  0
 11 17  1  0  0  0  0
 12 14  1  0  0  0  0
 13 14  1  0  0  0  0
 14 15  2  0  0  0  0
 14 17  1  0  0  0  0
  1 19  1  0  0  0  0
  2 20  1  0  0  0  0
  3 21  1  0  0  0  0
  4 22  1  0  0  0  0
  7 23  1  0  0  0  0
  7 24  1  0  0  0  0
  7 25  1  0  0  0  0
  8 26  1  0  0  0  0
  8 27  1  0  0  0  0
  8 28  1  0  0  0  0
  9 29  1  0  0  0  0
  9 30  1  0  0  0  0
 10 31  1  0  0  0  0
 10 32  1  0  0  0  0
 11 33  1  0  0  0  0
 11 34  1  0  0  0  0
M  END
$$$$
