1_bromohexane
  -OEChem-10241310043D

 20 19  0     0  0  0  0  0  0999 V2000
    0.6381   -0.6734    0.5815 C   0  0  0  0  0  0  0  0  0  0  0  0
   -0.0406   -1.0401    1.8915 C   0  0  0  0  0  0  0  0  0  0  0  0
    0.8444   -1.9478    2.7457 C   0  0  0  0  0  0  0  0  0  0  0  0
    0.1443   -2.3418    4.0483 C   0  0  0  0  0  0  0  0  0  0  0  0
    1.0444   -3.2288    4.9152 C   0  0  0  0  0  0  0  0  0  0  0  0
    0.3550   -3.7247    6.1768 C   0  0  0  0  0  0  0  0  0  0  0  0
    1.5375   -4.8555    7.2311 Br  0  0  0  0  0  0  0  0  0  0  0  0
    1.5782   -0.1425    0.7619 H   0  0  0  0  0  0  0  0  0  0  0  0
   -0.0111   -0.0225   -0.0124 H   0  0  0  0  0  0  0  0  0  0  0  0
    0.8562   -1.5676   -0.0109 H   0  0  0  0  0  0  0  0  0  0  0  0
   -0.2761   -0.1227    2.4437 H   0  0  0  0  0  0  0  0  0  0  0  0
   -0.9913   -1.5422    1.6761 H   0  0  0  0  0  0  0  0  0  0  0  0
    1.7852   -1.4330    2.9755 H   0  0  0  0  0  0  0  0  0  0  0  0
    1.1003   -2.8507    2.1781 H   0  0  0  0  0  0  0  0  0  0  0  0
   -0.7841   -2.8777    3.8163 H   0  0  0  0  0  0  0  0  0  0  0  0
   -0.1346   -1.4343    4.5952 H   0  0  0  0  0  0  0  0  0  0  0  0
    1.9664   -2.6907    5.1668 H   0  0  0  0  0  0  0  0  0  0  0  0
    1.3407   -4.1043    4.3240 H   0  0  0  0  0  0  0  0  0  0  0  0
    0.0266   -2.9068    6.8234 H   0  0  0  0  0  0  0  0  0  0  0  0
   -0.5054   -4.3520    5.9274 H   0  0  0  0  0  0  0  0  0  0  0  0
  1  2  1  0  0  0  0
  2  3  1  0  0  0  0
  3  4  1  0  0  0  0
  4  5  1  0  0  0  0
  5  6  1  0  0  0  0
  6  7  1  0  0  0  0
  1  8  1  0  0  0  0
  1  9  1  0  0  0  0
  1 10  1  0  0  0  0
  2 11  1  0  0  0  0
  2 12  1  0  0  0  0
  3 13  1  0  0  0  0
  3 14  1  0  0  0  0
  4 15  1  0  0  0  0
  4 16  1  0  0  0  0
  5 17  1  0  0  0  0
  5 18  1  0  0  0  0
  6 19  1  0  0  0  0
  6 20  1  0  0  0  0
M  END
$$$$
