SAMPL4_005
  -OEChem-10241310023D

 20 20  0     0  0  0  0  0  0999 V2000
    1.8850   -1.0360   -0.1120 C   0  0  0  0  0  0  0  0  0  0  0  0
    0.8070   -0.4630    0.5610 C   0  0  0  0  0  0  0  0  0  0  0  0
    2.9210   -1.6310    0.6080 C   0  0  0  0  0  0  0  0  0  0  0  0
    0.7640   -0.4840    1.9550 C   0  0  0  0  0  0  0  0  0  0  0  0
    2.8780   -1.6520    2.0020 C   0  0  0  0  0  0  0  0  0  0  0  0
    1.8000   -1.0790    2.6760 C   0  0  0  0  0  0  0  0  0  0  0  0
    4.9610   -2.7970    1.9300 C   0  0  0  0  0  0  0  0  0  0  0  0
    0.6100   -0.4840    4.6470 C   0  0  0  0  0  0  0  0  0  0  0  0
    3.8970   -2.2350    2.6950 O   0  0  0  0  0  0  0  0  0  0  0  0
    1.7470   -1.0920    4.0370 O   0  0  0  0  0  0  0  0  0  0  0  0
    1.9180   -1.0200   -1.1980 H   0  0  0  0  0  0  0  0  0  0  0  0
    0.0000   -0.0000    0.0000 H   0  0  0  0  0  0  0  0  0  0  0  0
    3.7580   -2.0760    0.0770 H   0  0  0  0  0  0  0  0  0  0  0  0
   -0.0790   -0.0340    2.4730 H   0  0  0  0  0  0  0  0  0  0  0  0
    5.7060   -3.2290    2.6040 H   0  0  0  0  0  0  0  0  0  0  0  0
    5.4190   -2.0200    1.3140 H   0  0  0  0  0  0  0  0  0  0  0  0
    4.5590   -3.5820    1.2850 H   0  0  0  0  0  0  0  0  0  0  0  0
    0.6930   -0.5640    5.7340 H   0  0  0  0  0  0  0  0  0  0  0  0
   -0.2990   -0.9830    4.3030 H   0  0  0  0  0  0  0  0  0  0  0  0
    0.5750    0.5700    4.3630 H   0  0  0  0  0  0  0  0  0  0  0  0
  1  2  2  0  0  0  0
  1  3  1  0  0  0  0
  2  4  1  0  0  0  0
  3  5  2  0  0  0  0
  4  6  2  0  0  0  0
  5  6  1  0  0  0  0
  5  9  1  0  0  0  0
  6 10  1  0  0  0  0
  7  9  1  0  0  0  0
  8 10  1  0  0  0  0
  1 11  1  0  0  0  0
  2 12  1  0  0  0  0
  3 13  1  0  0  0  0
  4 14  1  0  0  0  0
  7 15  1  0  0  0  0
  7 16  1  0  0  0  0
  7 17  1  0  0  0  0
  8 18  1  0  0  0  0
  8 19  1  0  0  0  0
  8 20  1  0  0  0  0
M  END
$$$$
