diethyl_sulfide
  -OEChem-10241310033D

 15 14  0     0  0  0  0  0  0999 V2000
    0.5033   -0.3033    1.1381 C   0  0  0  0  0  0  0  0  0  0  0  0
    5.4936    0.2991   -0.8463 C   0  0  0  0  0  0  0  0  0  0  0  0
    1.8518   -0.8681    0.7340 C   0  0  0  0  0  0  0  0  0  0  0  0
    4.3832   -0.5607   -0.2730 C   0  0  0  0  0  0  0  0  0  0  0  0
    2.9258    0.4446    0.0921 S   0  0  0  0  0  0  0  0  0  0  0  0
    0.6029    0.4491    1.9278 H   0  0  0  0  0  0  0  0  0  0  0  0
   -0.0141    0.1517    0.2867 H   0  0  0  0  0  0  0  0  0  0  0  0
   -0.1358   -1.1046    1.5239 H   0  0  0  0  0  0  0  0  0  0  0  0
    5.1881    0.7788   -1.7823 H   0  0  0  0  0  0  0  0  0  0  0  0
    5.8048    1.0774   -0.1413 H   0  0  0  0  0  0  0  0  0  0  0  0
    6.3701   -0.3205   -1.0633 H   0  0  0  0  0  0  0  0  0  0  0  0
    1.7267   -1.6313   -0.0402 H   0  0  0  0  0  0  0  0  0  0  0  0
    2.3409   -1.3340    1.5948 H   0  0  0  0  0  0  0  0  0  0  0  0
    4.7169   -1.0457    0.6494 H   0  0  0  0  0  0  0  0  0  0  0  0
    4.1025   -1.3421   -0.9856 H   0  0  0  0  0  0  0  0  0  0  0  0
  1  3  1  0  0  0  0
  2  4  1  0  0  0  0
  3  5  1  0  0  0  0
  4  5  1  0  0  0  0
  1  6  1  0  0  0  0
  1  7  1  0  0  0  0
  1  8  1  0  0  0  0
  2  9  1  0  0  0  0
  2 10  1  0  0  0  0
  2 11  1  0  0  0  0
  3 12  1  0  0  0  0
  3 13  1  0  0  0  0
  4 14  1  0  0  0  0
  4 15  1  0  0  0  0
M  END
$$$$
