methyl_cyclohexyl_ketone
  -OEChem-10241310023D

 23 23  0     0  0  0  0  0  0999 V2000
   -0.9221    0.2617   -0.5381 C   0  0  0  0  0  0  0  0  0  0  0  0
   -3.6084   -2.8787   -1.7939 C   0  0  0  0  0  0  0  0  0  0  0  0
   -2.1232   -3.2080   -1.6774 C   0  0  0  0  0  0  0  0  0  0  0  0
   -3.8300   -1.4772   -2.3548 C   0  0  0  0  0  0  0  0  0  0  0  0
   -1.3753   -2.1559   -0.8628 C   0  0  0  0  0  0  0  0  0  0  0  0
   -3.0859   -0.4210   -1.5420 C   0  0  0  0  0  0  0  0  0  0  0  0
   -1.5959   -0.7476   -1.4194 C   0  0  0  0  0  0  0  0  0  0  0  0
    0.5158    0.5784   -0.8484 C   0  0  0  0  0  0  0  0  0  0  0  0
   -1.5152    0.8025    0.3940 O   0  0  0  0  0  0  0  0  0  0  0  0
   -4.1005   -3.6161   -2.4380 H   0  0  0  0  0  0  0  0  0  0  0  0
   -4.0771   -2.9538   -0.8049 H   0  0  0  0  0  0  0  0  0  0  0  0
   -1.9987   -4.1921   -1.2115 H   0  0  0  0  0  0  0  0  0  0  0  0
   -1.6840   -3.2714   -2.6806 H   0  0  0  0  0  0  0  0  0  0  0  0
   -3.4875   -1.4428   -3.3964 H   0  0  0  0  0  0  0  0  0  0  0  0
   -4.9018   -1.2483   -2.3632 H   0  0  0  0  0  0  0  0  0  0  0  0
   -1.7070   -2.2018    0.1830 H   0  0  0  0  0  0  0  0  0  0  0  0
   -0.3040   -2.3919   -0.8555 H   0  0  0  0  0  0  0  0  0  0  0  0
   -3.2174    0.5624   -2.0098 H   0  0  0  0  0  0  0  0  0  0  0  0
   -3.5360   -0.3484   -0.5430 H   0  0  0  0  0  0  0  0  0  0  0  0
   -1.1252   -0.6701   -2.4072 H   0  0  0  0  0  0  0  0  0  0  0  0
    1.1183   -0.3290   -0.7587 H   0  0  0  0  0  0  0  0  0  0  0  0
    0.5915    0.9833   -1.8605 H   0  0  0  0  0  0  0  0  0  0  0  0
    0.8906    1.3230   -0.1407 H   0  0  0  0  0  0  0  0  0  0  0  0
  1  7  1  0  0  0  0
  1  8  1  0  0  0  0
  1  9  2  0  0  0  0
  2  3  1  0  0  0  0
  2  4  1  0  0  0  0
  3  5  1  0  0  0  0
  4  6  1  0  0  0  0
  5  7  1  0  0  0  0
  6  7  1  0  0  0  0
  2 10  1  0  0  0  0
  2 11  1  0  0  0  0
  3 12  1  0  0  0  0
  3 13  1  0  0  0  0
  4 14  1  0  0  0  0
  4 15  1  0  0  0  0
  5 16  1  0  0  0  0
  5 17  1  0  0  0  0
  6 18  1  0  0  0  0
  6 19  1  0  0  0  0
  7 20  1  0  0  0  0
  8 21  1  0  0  0  0
  8 22  1  0  0  0  0
  8 23  1  0  0  0  0
M  END
$$$$
