bromobenzene
  -OEChem-10241310033D

 12 12  0     0  0  0  0  0  0999 V2000
    1.8846   -1.0376   -0.1090 C   0  0  0  0  0  0  0  0  0  0  0  0
    0.8176   -0.4410    0.5626 C   0  0  0  0  0  0  0  0  0  0  0  0
    2.9348   -1.6038    0.6137 C   0  0  0  0  0  0  0  0  0  0  0  0
    0.8008   -0.4105    1.9570 C   0  0  0  0  0  0  0  0  0  0  0  0
    2.9180   -1.5734    2.0082 C   0  0  0  0  0  0  0  0  0  0  0  0
    1.8509   -0.9767    2.6799 C   0  0  0  0  0  0  0  0  0  0  0  0
    1.8282   -0.9349    4.5691 Br  0  0  0  0  0  0  0  0  0  0  0  0
    1.8979   -1.0610   -1.1947 H   0  0  0  0  0  0  0  0  0  0  0  0
    0.0001    0.0000   -0.0001 H   0  0  0  0  0  0  0  0  0  0  0  0
    3.7658   -2.0678    0.0907 H   0  0  0  0  0  0  0  0  0  0  0  0
   -0.0377    0.0585    2.4652 H   0  0  0  0  0  0  0  0  0  0  0  0
    3.7441   -2.0185    2.5565 H   0  0  0  0  0  0  0  0  0  0  0  0
  1  2  1  0  0  0  0
  1  3  2  0  0  0  0
  2  4  2  0  0  0  0
  3  5  1  0  0  0  0
  4  6  1  0  0  0  0
  5  6  2  0  0  0  0
  6  7  1  0  0  0  0
  1  8  1  0  0  0  0
  2  9  1  0  0  0  0
  3 10  1  0  0  0  0
  4 11  1  0  0  0  0
  5 12  1  0  0  0  0
M  END
$$$$
