octafluorocyclobutane
  -OEChem-10241310023D

 12 12  0     0  0  0  0  0  0999 V2000
    0.7740   -0.6330   -0.4490 C   0  0  0  0  0  0  0  0  0  0  0  0
    0.7840   -2.0790    0.0880 C   0  0  0  0  0  0  0  0  0  0  0  0
    0.3770   -1.2250   -1.8170 C   0  0  0  0  0  0  0  0  0  0  0  0
   -0.2080   -2.4240   -1.0430 C   0  0  0  0  0  0  0  0  0  0  0  0
   -0.1420    0.1880    0.1150 F   0  0  0  0  0  0  0  0  0  0  0  0
    1.9580    0.0160   -0.4120 F   0  0  0  0  0  0  0  0  0  0  0  0
    1.9780   -2.7130    0.0250 F   0  0  0  0  0  0  0  0  0  0  0  0
    0.3200   -2.2420    1.3460 F   0  0  0  0  0  0  0  0  0  0  0  0
   -0.5100   -0.5010   -2.5350 F   0  0  0  0  0  0  0  0  0  0  0  0
    1.4070   -1.5160   -2.6440 F   0  0  0  0  0  0  0  0  0  0  0  0
   -1.5170   -2.3350   -0.7230 F   0  0  0  0  0  0  0  0  0  0  0  0
   -0.0270   -3.6330   -1.6240 F   0  0  0  0  0  0  0  0  0  0  0  0
  1  2  1  0  0  0  0
  1  3  1  0  0  0  0
  1  5  1  0  0  0  0
  1  6  1  0  0  0  0
  2  4  1  0  0  0  0
  2  7  1  0  0  0  0
  2  8  1  0  0  0  0
  3  4  1  0  0  0  0
  3  9  1  0  0  0  0
  3 10  1  0  0  0  0
  4 11  1  0  0  0  0
  4 12  1  0  0  0  0
M  END
$$$$
