CUP08024_AM1BCC_v1_0
  -OEChem-10241310033D

 40 40  0     0  0  0  0  0  0999 V2000
   -1.3333    0.3158   -5.9138 C   0  0  0  0  0  0  0  0  0  0  0  0
   -2.2635    0.1680   -6.9192 C   0  0  0  0  0  0  0  0  0  0  0  0
   -1.7527   -0.0382   -4.6553 C   0  0  0  0  0  0  0  0  0  0  0  0
   -3.8216   -0.6119   -5.4134 C   0  0  0  0  0  0  0  0  0  0  0  0
   -1.9149    0.5232   -8.3326 C   0  0  0  0  0  0  0  0  0  0  0  0
   -3.7947    1.9991   -0.2585 C   0  0  0  0  0  0  0  0  0  0  0  0
    2.3055    0.8868   -0.9923 C   0  0  0  0  0  0  0  0  0  0  0  0
   -5.9392   -0.2609   -4.1204 C   0  0  0  0  0  0  0  0  0  0  0  0
   -5.1683   -2.5913   -4.6915 C   0  0  0  0  0  0  0  0  0  0  0  0
   -2.9051    0.7829   -0.4160 C   0  0  0  0  0  0  0  0  0  0  0  0
    1.3017   -0.1322   -1.4918 C   0  0  0  0  0  0  0  0  0  0  0  0
   -5.2153   -1.1333   -5.1460 C   0  0  0  0  0  0  0  0  0  0  0  0
   -3.5091   -0.2930   -6.6843 N   0  0  0  0  0  0  0  0  0  0  0  0
   -2.9748   -0.5010   -4.3758 N   0  0  0  0  0  0  0  0  0  0  0  0
   -0.8560    0.1030   -3.6305 O   0  0  0  0  0  0  0  0  0  0  0  0
   -2.4180    0.7514   -1.7450 O   0  0  0  0  0  0  0  0  0  0  0  0
   -0.0023    0.3941   -1.3105 O   0  0  0  0  0  0  0  0  0  0  0  0
   -1.2379   -0.2966   -2.1126 P   0  0  0  0  0  0  0  0  0  0  0  0
   -1.5124   -2.1747   -1.6852 S   0  0  0  0  0  0  0  0  0  0  0  0
   -0.3353    0.6881   -6.0981 H   0  0  0  0  0  0  0  0  0  0  0  0
   -1.0745   -0.0860   -8.6795 H   0  0  0  0  0  0  0  0  0  0  0  0
   -2.7636    0.3442   -9.0006 H   0  0  0  0  0  0  0  0  0  0  0  0
   -1.6446    1.5815   -8.4012 H   0  0  0  0  0  0  0  0  0  0  0  0
   -3.2357    2.9162   -0.4723 H   0  0  0  0  0  0  0  0  0  0  0  0
   -4.6281    1.9614   -0.9681 H   0  0  0  0  0  0  0  0  0  0  0  0
   -4.1974    2.0594    0.7565 H   0  0  0  0  0  0  0  0  0  0  0  0
    2.2063    1.8275   -1.5439 H   0  0  0  0  0  0  0  0  0  0  0  0
    2.1294    1.1166    0.0638 H   0  0  0  0  0  0  0  0  0  0  0  0
    3.3280    0.5164   -1.1071 H   0  0  0  0  0  0  0  0  0  0  0  0
   -5.4409   -0.2820   -3.1444 H   0  0  0  0  0  0  0  0  0  0  0  0
   -6.9689   -0.6058   -3.9780 H   0  0  0  0  0  0  0  0  0  0  0  0
   -5.9767    0.7829   -4.4516 H   0  0  0  0  0  0  0  0  0  0  0  0
   -4.6352   -2.7026   -3.7407 H   0  0  0  0  0  0  0  0  0  0  0  0
   -4.6589   -3.2169   -5.4331 H   0  0  0  0  0  0  0  0  0  0  0  0
   -6.1806   -2.9870   -4.5564 H   0  0  0  0  0  0  0  0  0  0  0  0
   -3.4819   -0.1254   -0.2191 H   0  0  0  0  0  0  0  0  0  0  0  0
   -2.0704    0.8355    0.2898 H   0  0  0  0  0  0  0  0  0  0  0  0
    1.3986   -1.0601   -0.9205 H   0  0  0  0  0  0  0  0  0  0  0  0
    1.4821   -0.3456   -2.5499 H   0  0  0  0  0  0  0  0  0  0  0  0
   -5.7840   -1.0902   -6.0838 H   0  0  0  0  0  0  0  0  0  0  0  0
  1  2  1  0  0  0  0
  1  3  2  0  0  0  0
  2  5  1  0  0  0  0
  2 13  2  0  0  0  0
  3 14  1  0  0  0  0
  3 15  1  0  0  0  0
  4 12  1  0  0  0  0
  4 13  1  0  0  0  0
  4 14  2  0  0  0  0
  6 10  1  0  0  0  0
  7 11  1  0  0  0  0
  8 12  1  0  0  0  0
  9 12  1  0  0  0  0
 10 16  1  0  0  0  0
 11 17  1  0  0  0  0
 15 18  1  0  0  0  0
 16 18  1  0  0  0  0
 17 18  1  0  0  0  0
 18 19  2  0  0  0  0
  1 20  1  0  0  0  0
  5 21  1  0  0  0  0
  5 22  1  0  0  0  0
  5 23  1  0  0  0  0
  6 24  1  0  0  0  0
  6 25  1  0  0  0  0
  6 26  1  0  0  0  0
  7 27  1  0  0  0  0
  7 28  1  0  0  0  0
  7 29  1  0  0  0  0
  8 30  1  0  0  0  0
  8 31  1  0  0  0  0
  8 32  1  0  0  0  0
  9 33  1  0  0  0  0
  9 34  1  0  0  0  0
  9 35  1  0  0  0  0
 10 36  1  0  0  0  0
 10 37  1  0  0  0  0
 11 38  1  0  0  0  0
 11 39  1  0  0  0  0
 12 40  1  0  0  0  0
M  END
$$$$
