2_methoxyethanamine
  -OEChem-10241310033D

 14 13  0     0  0  0  0  0  0999 V2000
    0.2962    3.8862    0.7607 C   0  0  0  0  0  0  0  0  0  0  0  0
    0.7871    0.4949   -0.5798 C   0  0  0  0  0  0  0  0  0  0  0  0
    0.5392    1.9945   -0.6124 C   0  0  0  0  0  0  0  0  0  0  0  0
    0.8132   -0.0510   -1.9286 N   0  0  0  0  0  0  0  0  0  0  0  0
    0.5047    2.4810    0.7229 O   0  0  0  0  0  0  0  0  0  0  0  0
   -0.3116    4.1418    1.6321 H   0  0  0  0  0  0  0  0  0  0  0  0
   -0.2081    4.2054   -0.1549 H   0  0  0  0  0  0  0  0  0  0  0  0
    1.2642    4.3873    0.8348 H   0  0  0  0  0  0  0  0  0  0  0  0
    1.7339    0.2830   -0.0699 H   0  0  0  0  0  0  0  0  0  0  0  0
    0.0031    0.0006    0.0046 H   0  0  0  0  0  0  0  0  0  0  0  0
   -0.4189    2.2254   -1.0899 H   0  0  0  0  0  0  0  0  0  0  0  0
    1.3385    2.5157   -1.1498 H   0  0  0  0  0  0  0  0  0  0  0  0
    0.4292    0.6349   -2.5756 H   0  0  0  0  0  0  0  0  0  0  0  0
    0.1995   -0.8621   -1.9740 H   0  0  0  0  0  0  0  0  0  0  0  0
  1  5  1  0  0  0  0
  2  3  1  0  0  0  0
  2  4  1  0  0  0  0
  3  5  1  0  0  0  0
  1  6  1  0  0  0  0
  1  7  1  0  0  0  0
  1  8  1  0  0  0  0
  2  9  1  0  0  0  0
  2 10  1  0  0  0  0
  3 11  1  0  0  0  0
  3 12  1  0  0  0  0
  4 13  1  0  0  0  0
  4 14  1  0  0  0  0
M  END
$$$$
