butan_2_ol
  -OEChem-10241310023D

 15 14  0     1  0  0  0  0  0999 V2000
    0.9784   -0.0326   -0.2360 C   0  0  0  0  0  0  0  0  0  0  0  0
    1.0608    0.9421   -3.9925 C   0  0  0  0  0  0  0  0  0  0  0  0
    1.4098    0.6794   -1.5114 C   0  0  0  0  0  0  0  0  0  0  0  0
    0.6395    0.1877   -2.7386 C   0  0  1  0  0  0  0  0  0  0  0  0
   -0.7550    0.3897   -2.5267 O   0  0  0  0  0  0  0  0  0  0  0  0
    1.1283   -1.1135   -0.3220 H   0  0  0  0  0  0  0  0  0  0  0  0
   -0.0769    0.1525   -0.0129 H   0  0  0  0  0  0  0  0  0  0  0  0
    1.5693    0.3248    0.6135 H   0  0  0  0  0  0  0  0  0  0  0  0
    0.8498    2.0129   -3.8954 H   0  0  0  0  0  0  0  0  0  0  0  0
    2.1277    0.8107   -4.1965 H   0  0  0  0  0  0  0  0  0  0  0  0
    0.4950    0.5881   -4.8611 H   0  0  0  0  0  0  0  0  0  0  0  0
    2.4847    0.5237   -1.6590 H   0  0  0  0  0  0  0  0  0  0  0  0
    1.2456    1.7551   -1.3741 H   0  0  0  0  0  0  0  0  0  0  0  0
    0.8085   -0.8858   -2.8804 H   0  0  0  0  0  0  0  0  0  0  0  0
   -1.1024    0.7927   -3.3376 H   0  0  0  0  0  0  0  0  0  0  0  0
  1  3  1  0  0  0  0
  2  4  1  0  0  0  0
  3  4  1  0  0  0  0
  4  5  1  0  0  0  0
  1  6  1  0  0  0  0
  1  7  1  0  0  0  0
  1  8  1  0  0  0  0
  2  9  1  0  0  0  0
  2 10  1  0  0  0  0
  2 11  1  0  0  0  0
  3 12  1  0  0  0  0
  3 13  1  0  0  0  0
  4 14  1  0  0  0  0
  5 15  1  0  0  0  0
M  END
$$$$
