isobutyraldehyde
  -OEChem-10241310033D

 13 12  0     0  0  0  0  0  0999 V2000
   -2.1993    0.5040    1.5020 C   0  0  0  0  0  0  0  0  0  0  0  0
   -0.4393   -0.8920    0.4598 C   0  0  0  0  0  0  0  0  0  0  0  0
   -2.5622   -1.9747    1.2574 C   0  0  0  0  0  0  0  0  0  0  0  0
   -1.9421   -0.7229    0.6486 C   0  0  0  0  0  0  0  0  0  0  0  0
   -2.8146    0.4990    2.5633 O   0  0  0  0  0  0  0  0  0  0  0  0
   -1.8235    1.4547    1.0842 H   0  0  0  0  0  0  0  0  0  0  0  0
    0.0000    0.0000    0.0000 H   0  0  0  0  0  0  0  0  0  0  0  0
   -0.2200   -1.7475   -0.1872 H   0  0  0  0  0  0  0  0  0  0  0  0
    0.0663   -1.0486    1.4193 H   0  0  0  0  0  0  0  0  0  0  0  0
   -2.3870   -2.8471    0.6192 H   0  0  0  0  0  0  0  0  0  0  0  0
   -3.6448   -1.8560    1.3752 H   0  0  0  0  0  0  0  0  0  0  0  0
   -2.1435   -2.1865    2.2474 H   0  0  0  0  0  0  0  0  0  0  0  0
   -2.4061   -0.5326   -0.3263 H   0  0  0  0  0  0  0  0  0  0  0  0
  1  4  1  0  0  0  0
  1  5  2  0  0  0  0
  2  4  1  0  0  0  0
  3  4  1  0  0  0  0
  1  6  1  0  0  0  0
  2  7  1  0  0  0  0
  2  8  1  0  0  0  0
  2  9  1  0  0  0  0
  3 10  1  0  0  0  0
  3 11  1  0  0  0  0
  3 12  1  0  0  0  0
  4 13  1  0  0  0  0
M  END
$$$$
