333_trimethoxypropionitrile
  -OEChem-10241310043D

 21 20  0     0  0  0  0  0  0999 V2000
    3.1391   -3.4250   -2.6734 C   0  0  0  0  0  0  0  0  0  0  0  0
    0.8309   -0.5280   -0.4458 C   0  0  0  0  0  0  0  0  0  0  0  0
   -0.0314   -2.7624   -3.9308 C   0  0  0  0  0  0  0  0  0  0  0  0
    2.3473    0.6409   -3.2719 C   0  0  0  0  0  0  0  0  0  0  0  0
    2.0630   -2.7911   -1.8914 C   0  0  0  0  0  0  0  0  0  0  0  0
    1.5223   -1.5013   -2.5604 C   0  0  0  0  0  0  0  0  0  0  0  0
    3.9860   -3.9252   -3.2889 N   0  0  0  0  0  0  0  0  0  0  0  0
    0.4722   -0.9122   -1.7653 O   0  0  0  0  0  0  0  0  0  0  0  0
    1.0258   -1.8137   -3.8821 O   0  0  0  0  0  0  0  0  0  0  0  0
    2.6577   -0.6108   -2.6724 O   0  0  0  0  0  0  0  0  0  0  0  0
    1.6862    0.1511   -0.4830 H   0  0  0  0  0  0  0  0  0  0  0  0
    1.0831   -1.4170    0.1377 H   0  0  0  0  0  0  0  0  0  0  0  0
   -0.0164   -0.0180    0.0187 H   0  0  0  0  0  0  0  0  0  0  0  0
    0.3818   -3.7725   -3.8763 H   0  0  0  0  0  0  0  0  0  0  0  0
   -0.5926   -2.6364   -4.8601 H   0  0  0  0  0  0  0  0  0  0  0  0
   -0.6969   -2.5970   -3.0803 H   0  0  0  0  0  0  0  0  0  0  0  0
    2.2586    1.4053   -2.4961 H   0  0  0  0  0  0  0  0  0  0  0  0
    1.4088    0.5580   -3.8257 H   0  0  0  0  0  0  0  0  0  0  0  0
    3.1509    0.9147   -3.9597 H   0  0  0  0  0  0  0  0  0  0  0  0
    2.4639   -2.5593   -0.8971 H   0  0  0  0  0  0  0  0  0  0  0  0
    1.2511   -3.5105   -1.7355 H   0  0  0  0  0  0  0  0  0  0  0  0
  1  5  1  0  0  0  0
  1  7  3  0  0  0  0
  2  8  1  0  0  0  0
  3  9  1  0  0  0  0
  4 10  1  0  0  0  0
  5  6  1  0  0  0  0
  6  8  1  0  0  0  0
  6  9  1  0  0  0  0
  6 10  1  0  0  0  0
  2 11  1  0  0  0  0
  2 12  1  0  0  0  0
  2 13  1  0  0  0  0
  3 14  1  0  0  0  0
  3 15  1  0  0  0  0
  3 16  1  0  0  0  0
  4 17  1  0  0  0  0
  4 18  1  0  0  0  0
  4 19  1  0  0  0  0
  5 20  1  0  0  0  0
  5 21  1  0  0  0  0
M  END
$$$$
