112_trichloro_122_trifluoroethane
  -OEChem-10241310023D

  8  7  0     0  0  0  0  0  0999 V2000
    1.3843    0.0329    0.6380 C   0  0  0  0  0  0  0  0  0  0  0  0
    0.0000    0.0000    0.0000 C   0  0  0  0  0  0  0  0  0  0  0  0
    1.7627   -1.2352    0.9511 F   0  0  0  0  0  0  0  0  0  0  0  0
    2.2875    0.4784   -0.2760 F   0  0  0  0  0  0  0  0  0  0  0  0
    0.0855   -0.7667   -1.1252 F   0  0  0  0  0  0  0  0  0  0  0  0
    1.4934    1.0429    2.0949 Cl  0  0  0  0  0  0  0  0  0  0  0  0
   -0.5438    1.6250   -0.4900 Cl  0  0  0  0  0  0  0  0  0  0  0  0
   -1.2088   -0.7470    1.0758 Cl  0  0  0  0  0  0  0  0  0  0  0  0
  1  2  1  0  0  0  0
  1  3  1  0  0  0  0
  1  4  1  0  0  0  0
  1  6  1  0  0  0  0
  2  5  1  0  0  0  0
  2  7  1  0  0  0  0
  2  8  1  0  0  0  0
M  END
$$$$
