CUP08025_AM1BCC_v1_0
  -OEChem-10241310033D

 19 19  0     0  0  0  0  0  0999 V2000
    1.5633   -1.3628    0.0571 C   0  0  0  0  0  0  0  0  0  0  0  0
    0.6691   -0.5288    0.7324 C   0  0  0  0  0  0  0  0  0  0  0  0
    2.7440   -1.7701    2.1280 C   0  0  0  0  0  0  0  0  0  0  0  0
    1.8745   -0.9006    2.8035 C   0  0  0  0  0  0  0  0  0  0  0  0
    2.6008   -1.9888    0.7535 C   0  0  0  0  0  0  0  0  0  0  0  0
    0.8179   -0.3042    2.1035 C   0  0  0  0  0  0  0  0  0  0  0  0
    3.8139   -2.4336    2.8765 C   0  0  0  0  0  0  0  0  0  0  0  0
    2.7857    0.4460    4.4425 C   0  0  0  0  0  0  0  0  0  0  0  0
    4.8272   -1.9120    3.2973 O   0  0  0  0  0  0  0  0  0  0  0  0
    3.5172   -3.7292    3.0707 O   0  0  0  0  0  0  0  0  0  0  0  0
    2.0064   -0.7196    4.1582 O   0  0  0  0  0  0  0  0  0  0  0  0
    3.6772   -2.9975   -0.1452 Cl  0  0  0  0  0  0  0  0  0  0  0  0
   -0.3442    0.7007    2.8906 Cl  0  0  0  0  0  0  0  0  0  0  0  0
    1.4396   -1.5264   -1.0116 H   0  0  0  0  0  0  0  0  0  0  0  0
   -0.1464   -0.0617    0.1842 H   0  0  0  0  0  0  0  0  0  0  0  0
    3.0481    0.4204    5.5043 H   0  0  0  0  0  0  0  0  0  0  0  0
    2.2059    1.3557    4.2589 H   0  0  0  0  0  0  0  0  0  0  0  0
    3.7150    0.4737    3.8634 H   0  0  0  0  0  0  0  0  0  0  0  0
    4.2718   -4.0805    3.5880 H   0  0  0  0  0  0  0  0  0  0  0  0
  1  2  1  0  0  0  0
  1  5  2  0  0  0  0
  2  6  2  0  0  0  0
  3  4  2  0  0  0  0
  3  5  1  0  0  0  0
  3  7  1  0  0  0  0
  4  6  1  0  0  0  0
  4 11  1  0  0  0  0
  5 12  1  0  0  0  0
  6 13  1  0  0  0  0
  7  9  2  0  0  0  0
  7 10  1  0  0  0  0
  8 11  1  0  0  0  0
  1 14  1  0  0  0  0
  2 15  1  0  0  0  0
  8 16  1  0  0  0  0
  8 17  1  0  0  0  0
  8 18  1  0  0  0  0
 10 19  1  0  0  0  0
M  END
$$$$
