tetrafluoromethane
  -OEChem-10241310033D

  5  4  0     0  0  0  0  0  0999 V2000
   -0.9413   -0.8517   -0.4400 C   0  0  0  0  0  0  0  0  0  0  0  0
    0.0000    0.0000    0.0000 F   0  0  0  0  0  0  0  0  0  0  0  0
   -0.4521   -2.1029   -0.4320 F   0  0  0  0  0  0  0  0  0  0  0  0
   -1.2972   -0.5180   -1.6919 F   0  0  0  0  0  0  0  0  0  0  0  0
   -2.0159   -0.7858    0.3638 F   0  0  0  0  0  0  0  0  0  0  0  0
  1  2  1  0  0  0  0
  1  3  1  0  0  0  0
  1  4  1  0  0  0  0
  1  5  1  0  0  0  0
M  END
$$$$
