heptan_1_ol
  -OEChem-10241310033D

 24 23  0     0  0  0  0  0  0999 V2000
    2.0122   -2.5402   -0.1882 C   0  0  0  0  0  0  0  0  0  0  0  0
    1.5978   -2.9985   -1.5783 C   0  0  0  0  0  0  0  0  0  0  0  0
    0.0762   -3.0068   -1.7315 C   0  0  0  0  0  0  0  0  0  0  0  0
   -0.3960   -3.5293   -3.0913 C   0  0  0  0  0  0  0  0  0  0  0  0
   -1.9190   -3.6070   -3.2176 C   0  0  0  0  0  0  0  0  0  0  0  0
   -2.3336   -4.1556   -4.5822 C   0  0  0  0  0  0  0  0  0  0  0  0
   -3.8475   -4.1981   -4.7344 C   0  0  0  0  0  0  0  0  0  0  0  0
   -4.1654   -4.7016   -6.0245 O   0  0  0  0  0  0  0  0  0  0  0  0
    1.6501   -1.5273    0.0150 H   0  0  0  0  0  0  0  0  0  0  0  0
    3.1031   -2.5353   -0.1005 H   0  0  0  0  0  0  0  0  0  0  0  0
    1.6131   -3.2092    0.5810 H   0  0  0  0  0  0  0  0  0  0  0  0
    1.9965   -4.0034   -1.7589 H   0  0  0  0  0  0  0  0  0  0  0  0
    2.0517   -2.3292   -2.3167 H   0  0  0  0  0  0  0  0  0  0  0  0
   -0.3183   -1.9963   -1.5687 H   0  0  0  0  0  0  0  0  0  0  0  0
   -0.3586   -3.6441   -0.9513 H   0  0  0  0  0  0  0  0  0  0  0  0
    0.0104   -2.8967   -3.8898 H   0  0  0  0  0  0  0  0  0  0  0  0
    0.0265   -4.5313   -3.2368 H   0  0  0  0  0  0  0  0  0  0  0  0
   -2.3586   -2.6124   -3.0838 H   0  0  0  0  0  0  0  0  0  0  0  0
   -2.3215   -4.2506   -2.4260 H   0  0  0  0  0  0  0  0  0  0  0  0
   -1.9265   -5.1643   -4.7263 H   0  0  0  0  0  0  0  0  0  0  0  0
   -1.9049   -3.5418   -5.3843 H   0  0  0  0  0  0  0  0  0  0  0  0
   -4.2785   -3.1968   -4.6355 H   0  0  0  0  0  0  0  0  0  0  0  0
   -4.2970   -4.8556   -3.9835 H   0  0  0  0  0  0  0  0  0  0  0  0
   -3.3613   -5.1252   -6.3663 H   0  0  0  0  0  0  0  0  0  0  0  0
  1  2  1  0  0  0  0
  2  3  1  0  0  0  0
  3  4  1  0  0  0  0
  4  5  1  0  0  0  0
  5  6  1  0  0  0  0
  6  7  1  0  0  0  0
  7  8  1  0  0  0  0
  1  9  1  0  0  0  0
  1 10  1  0  0  0  0
  1 11  1  0  0  0  0
  2 12  1  0  0  0  0
  2 13  1  0  0  0  0
  3 14  1  0  0  0  0
  3 15  1  0  0  0  0
  4 16  1  0  0  0  0
  4 17  1  0  0  0  0
  5 18  1  0  0  0  0
  5 19  1  0  0  0  0
  6 20  1  0  0  0  0
  6 21  1  0  0  0  0
  7 22  1  0  0  0  0
  7 23  1  0  0  0  0
  8 24  1  0  0  0  0
M  END
$$$$
