heptanal
  -OEChem-10241310033D

 22 21  0     0  0  0  0  0  0999 V2000
    8.3266   -1.0702    1.1188 C   0  0  0  0  0  0  0  0  0  0  0  0
    0.8210   -0.4475    0.5682 C   0  0  0  0  0  0  0  0  0  0  0  0
    7.1932   -0.4726    0.3268 C   0  0  0  0  0  0  0  0  0  0  0  0
    2.1593   -0.0291   -0.0196 C   0  0  0  0  0  0  0  0  0  0  0  0
    5.8388   -0.8769    0.9008 C   0  0  0  0  0  0  0  0  0  0  0  0
    3.3262   -0.6628    0.7374 C   0  0  0  0  0  0  0  0  0  0  0  0
    4.6698   -0.2658    0.1224 C   0  0  0  0  0  0  0  0  0  0  0  0
    8.1594   -1.7410    2.1325 O   0  0  0  0  0  0  0  0  0  0  0  0
    9.3427   -0.8342    0.7592 H   0  0  0  0  0  0  0  0  0  0  0  0
    0.0008    0.0168    0.0117 H   0  0  0  0  0  0  0  0  0  0  0  0
    0.7388   -0.1386    1.6150 H   0  0  0  0  0  0  0  0  0  0  0  0
    0.6930   -1.5334    0.5190 H   0  0  0  0  0  0  0  0  0  0  0  0
    7.3019    0.6166    0.3015 H   0  0  0  0  0  0  0  0  0  0  0  0
    7.2854   -0.8466   -0.6985 H   0  0  0  0  0  0  0  0  0  0  0  0
    2.2417    1.0634    0.0159 H   0  0  0  0  0  0  0  0  0  0  0  0
    2.1964   -0.3232   -1.0749 H   0  0  0  0  0  0  0  0  0  0  0  0
    5.7585   -1.9703    0.8688 H   0  0  0  0  0  0  0  0  0  0  0  0
    5.7735   -0.5797    1.9547 H   0  0  0  0  0  0  0  0  0  0  0  0
    3.2962   -0.3491    1.7880 H   0  0  0  0  0  0  0  0  0  0  0  0
    3.2235   -1.7548    0.7231 H   0  0  0  0  0  0  0  0  0  0  0  0
    4.7087   -0.6012   -0.9212 H   0  0  0  0  0  0  0  0  0  0  0  0
    4.7568    0.8272    0.1145 H   0  0  0  0  0  0  0  0  0  0  0  0
  1  3  1  0  0  0  0
  1  8  2  0  0  0  0
  2  4  1  0  0  0  0
  3  5  1  0  0  0  0
  4  6  1  0  0  0  0
  5  7  1  0  0  0  0
  6  7  1  0  0  0  0
  1  9  1  0  0  0  0
  2 10  1  0  0  0  0
  2 11  1  0  0  0  0
  2 12  1  0  0  0  0
  3 13  1  0  0  0  0
  3 14  1  0  0  0  0
  4 15  1  0  0  0  0
  4 16  1  0  0  0  0
  5 17  1  0  0  0  0
  5 18  1  0  0  0  0
  6 19  1  0  0  0  0
  6 20  1  0  0  0  0
  7 21  1  0  0  0  0
  7 22  1  0  0  0  0
M  END
$$$$
