hept_1_yne
  -OEChem-10241310033D

 19 18  0     0  0  0  0  0  0999 V2000
    1.4731    1.7273    7.8631 C   0  0  0  0  0  0  0  0  0  0  0  0
    1.4164    0.9600    6.9415 C   0  0  0  0  0  0  0  0  0  0  0  0
    0.3156   -0.5244    0.9080 C   0  0  0  0  0  0  0  0  0  0  0  0
    1.3493    0.0173    5.8164 C   0  0  0  0  0  0  0  0  0  0  0  0
    0.3835    0.4440    2.0781 C   0  0  0  0  0  0  0  0  0  0  0  0
    0.8999    0.7191    4.5349 C   0  0  0  0  0  0  0  0  0  0  0  0
    0.8647   -0.2502    3.3519 C   0  0  0  0  0  0  0  0  0  0  0  0
    1.5240    2.4078    8.6807 H   0  0  0  0  0  0  0  0  0  0  0  0
   -0.0314   -0.0077    0.0077 H   0  0  0  0  0  0  0  0  0  0  0  0
   -0.3781   -1.3448    1.1174 H   0  0  0  0  0  0  0  0  0  0  0  0
    1.3004   -0.9525    0.6955 H   0  0  0  0  0  0  0  0  0  0  0  0
    2.3339   -0.4400    5.6638 H   0  0  0  0  0  0  0  0  0  0  0  0
    0.6528   -0.7935    6.0600 H   0  0  0  0  0  0  0  0  0  0  0  0
    1.0606    1.2679    1.8241 H   0  0  0  0  0  0  0  0  0  0  0  0
   -0.6093    0.8787    2.2430 H   0  0  0  0  0  0  0  0  0  0  0  0
   -0.0956    1.1574    4.6813 H   0  0  0  0  0  0  0  0  0  0  0  0
    1.5802    1.5504    4.3091 H   0  0  0  0  0  0  0  0  0  0  0  0
    1.8665   -0.6657    3.1877 H   0  0  0  0  0  0  0  0  0  0  0  0
    0.2001   -1.0909    3.5855 H   0  0  0  0  0  0  0  0  0  0  0  0
  1  2  3  0  0  0  0
  2  4  1  0  0  0  0
  3  5  1  0  0  0  0
  4  6  1  0  0  0  0
  5  7  1  0  0  0  0
  6  7  1  0  0  0  0
  1  8  1  0  0  0  0
  3  9  1  0  0  0  0
  3 10  1  0  0  0  0
  3 11  1  0  0  0  0
  4 12  1  0  0  0  0
  4 13  1  0  0  0  0
  5 14  1  0  0  0  0
  5 15  1  0  0  0  0
  6 16  1  0  0  0  0
  6 17  1  0  0  0  0
  7 18  1  0  0  0  0
  7 19  1  0  0  0  0
M  END
$$$$
