3_phenylpropanol
  -OEChem-10241310033D

 22 22  0     0  0  0  0  0  0999 V2000
    1.8846   -1.0376   -0.1090 C   0  0  0  0  0  0  0  0  0  0  0  0
    0.8176   -0.4410    0.5626 C   0  0  0  0  0  0  0  0  0  0  0  0
    2.9348   -1.6038    0.6137 C   0  0  0  0  0  0  0  0  0  0  0  0
    0.8008   -0.4105    1.9570 C   0  0  0  0  0  0  0  0  0  0  0  0
    2.9180   -1.5734    2.0082 C   0  0  0  0  0  0  0  0  0  0  0  0
    1.8509   -0.9767    2.6799 C   0  0  0  0  0  0  0  0  0  0  0  0
    1.8328   -0.9437    4.1709 C   0  0  0  0  0  0  0  0  0  0  0  0
    2.5091    0.3130    4.7323 C   0  0  0  0  0  0  0  0  0  0  0  0
    2.5328    0.3200    6.2543 C   0  0  0  0  0  0  0  0  0  0  0  0
    3.1585    1.5158    6.6987 O   0  0  0  0  0  0  0  0  0  0  0  0
    1.8979   -1.0612   -1.1948 H   0  0  0  0  0  0  0  0  0  0  0  0
    0.0002    0.0000   -0.0002 H   0  0  0  0  0  0  0  0  0  0  0  0
    3.7655   -2.0682    0.0906 H   0  0  0  0  0  0  0  0  0  0  0  0
   -0.0347    0.0567    2.4718 H   0  0  0  0  0  0  0  0  0  0  0  0
    3.7404   -2.0171    2.5631 H   0  0  0  0  0  0  0  0  0  0  0  0
    2.3300   -1.8406    4.5768 H   0  0  0  0  0  0  0  0  0  0  0  0
    0.7947   -0.9977    4.5393 H   0  0  0  0  0  0  0  0  0  0  0  0
    1.9947    1.2140    4.3733 H   0  0  0  0  0  0  0  0  0  0  0  0
    3.5363    0.3929    4.3535 H   0  0  0  0  0  0  0  0  0  0  0  0
    1.5168    0.2865    6.6610 H   0  0  0  0  0  0  0  0  0  0  0  0
    3.0994   -0.5336    6.6399 H   0  0  0  0  0  0  0  0  0  0  0  0
    3.0585    2.1666    5.9851 H   0  0  0  0  0  0  0  0  0  0  0  0
  1  2  1  0  0  0  0
  1  3  2  0  0  0  0
  2  4  2  0  0  0  0
  3  5  1  0  0  0  0
  4  6  1  0  0  0  0
  5  6  2  0  0  0  0
  6  7  1  0  0  0  0
  7  8  1  0  0  0  0
  8  9  1  0  0  0  0
  9 10  1  0  0  0  0
  1 11  1  0  0  0  0
  2 12  1  0  0  0  0
  3 13  1  0  0  0  0
  4 14  1  0  0  0  0
  5 15  1  0  0  0  0
  7 16  1  0  0  0  0
  7 17  1  0  0  0  0
  8 18  1  0  0  0  0
  8 19  1  0  0  0  0
  9 20  1  0  0  0  0
  9 21  1  0  0  0  0
 10 22  1  0  0  0  0
M  END
$$$$
