ethanol
  -OEChem-10241310023D

  9  8  0     0  0  0  0  0  0999 V2000
    1.0616   -0.2681   -0.0006 C   0  0  0  0  0  0  0  0  0  0  0  0
    1.9101    0.9126   -0.4220 C   0  0  0  0  0  0  0  0  0  0  0  0
    1.5170    1.3236   -1.7228 O   0  0  0  0  0  0  0  0  0  0  0  0
    1.3397   -0.6112    0.9998 H   0  0  0  0  0  0  0  0  0  0  0  0
    0.0000    0.0000    0.0000 H   0  0  0  0  0  0  0  0  0  0  0  0
    1.1797   -1.0988   -0.7043 H   0  0  0  0  0  0  0  0  0  0  0  0
    2.9684    0.6361   -0.4446 H   0  0  0  0  0  0  0  0  0  0  0  0
    1.7730    1.7499    0.2687 H   0  0  0  0  0  0  0  0  0  0  0  0
    2.1582    0.9419   -2.3447 H   0  0  0  0  0  0  0  0  0  0  0  0
  1  2  1  0  0  0  0
  2  3  1  0  0  0  0
  1  4  1  0  0  0  0
  1  5  1  0  0  0  0
  1  6  1  0  0  0  0
  2  7  1  0  0  0  0
  2  8  1  0  0  0  0
  3  9  1  0  0  0  0
M  END
$$$$
