1235_tetrachlorobenzene
  -OEChem-10241310023D

 12 12  0     0  0  0  0  0  0999 V2000
    0.8178   -0.4385    0.5644 C   0  0  0  0  0  0  0  0  0  0  0  0
    2.9371   -1.5972    0.6197 C   0  0  0  0  0  0  0  0  0  0  0  0
    1.8867   -1.0341   -0.1051 C   0  0  0  0  0  0  0  0  0  0  0  0
    0.7994   -0.4058    1.9588 C   0  0  0  0  0  0  0  0  0  0  0  0
    2.9185   -1.5646    2.0141 C   0  0  0  0  0  0  0  0  0  0  0  0
    1.8497   -0.9689    2.6836 C   0  0  0  0  0  0  0  0  0  0  0  0
    1.9091   -1.0758   -1.8257 Cl  0  0  0  0  0  0  0  0  0  0  0  0
   -0.5594    0.3502    2.7188 Cl  0  0  0  0  0  0  0  0  0  0  0  0
    4.2564   -2.2822    2.8451 Cl  0  0  0  0  0  0  0  0  0  0  0  0
    1.8259   -0.9293    4.4217 Cl  0  0  0  0  0  0  0  0  0  0  0  0
   -0.0001   -0.0008   -0.0044 H   0  0  0  0  0  0  0  0  0  0  0  0
    3.7687   -2.0617    0.0935 H   0  0  0  0  0  0  0  0  0  0  0  0
  1  3  1  0  0  0  0
  1  4  2  0  0  0  0
  2  3  2  0  0  0  0
  2  5  1  0  0  0  0
  3  7  1  0  0  0  0
  4  6  1  0  0  0  0
  4  8  1  0  0  0  0
  5  6  2  0  0  0  0
  5  9  1  0  0  0  0
  6 10  1  0  0  0  0
  1 11  1  0  0  0  0
  2 12  1  0  0  0  0
M  END
$$$$
