isoamyl_formate
  -OEChem-10241310033D

 20 19  0     0  0  0  0  0  0999 V2000
   -1.3181   -2.1660   -5.8535 C   0  0  0  0  0  0  0  0  0  0  0  0
   -2.1890   -1.7197   -0.7224 C   0  0  0  0  0  0  0  0  0  0  0  0
   -0.2099   -3.2506   -0.7601 C   0  0  0  0  0  0  0  0  0  0  0  0
   -0.3808   -1.3238   -2.4187 C   0  0  0  0  0  0  0  0  0  0  0  0
   -1.1136   -2.0995   -3.5067 C   0  0  0  0  0  0  0  0  0  0  0  0
   -0.6860   -1.8165   -0.9949 C   0  0  0  0  0  0  0  0  0  0  0  0
   -2.1123   -3.0935   -5.8506 O   0  0  0  0  0  0  0  0  0  0  0  0
   -0.7406   -1.5710   -4.7733 O   0  0  0  0  0  0  0  0  0  0  0  0
   -0.9535   -1.6723   -6.7675 H   0  0  0  0  0  0  0  0  0  0  0  0
   -2.4199   -2.0310    0.3019 H   0  0  0  0  0  0  0  0  0  0  0  0
   -2.7592   -2.3568   -1.4070 H   0  0  0  0  0  0  0  0  0  0  0  0
   -2.5413   -0.6899   -0.8443 H   0  0  0  0  0  0  0  0  0  0  0  0
   -0.6464   -3.9387   -1.4920 H   0  0  0  0  0  0  0  0  0  0  0  0
   -0.4953   -3.5956    0.2396 H   0  0  0  0  0  0  0  0  0  0  0  0
    0.8796   -3.3251   -0.8289 H   0  0  0  0  0  0  0  0  0  0  0  0
    0.6985   -1.3957   -2.6079 H   0  0  0  0  0  0  0  0  0  0  0  0
   -0.6213   -0.2567   -2.5134 H   0  0  0  0  0  0  0  0  0  0  0  0
   -0.8430   -3.1597   -3.4801 H   0  0  0  0  0  0  0  0  0  0  0  0
   -2.1983   -2.0026   -3.4059 H   0  0  0  0  0  0  0  0  0  0  0  0
   -0.1722   -1.1627   -0.2788 H   0  0  0  0  0  0  0  0  0  0  0  0
  1  7  2  0  0  0  0
  1  8  1  0  0  0  0
  2  6  1  0  0  0  0
  3  6  1  0  0  0  0
  4  5  1  0  0  0  0
  4  6  1  0  0  0  0
  5  8  1  0  0  0  0
  1  9  1  0  0  0  0
  2 10  1  0  0  0  0
  2 11  1  0  0  0  0
  2 12  1  0  0  0  0
  3 13  1  0  0  0  0
  3 14  1  0  0  0  0
  3 15  1  0  0  0  0
  4 16  1  0  0  0  0
  4 17  1  0  0  0  0
  5 18  1  0  0  0  0
  5 19  1  0  0  0  0
  6 20  1  0  0  0  0
M  END
$$$$
