n_hexane
  -OEChem-10241310033D

 20 19  0     0  0  0  0  0  0999 V2000
   -0.7259   -0.7465   -0.3392 C   0  0  0  0  0  0  0  0  0  0  0  0
   -3.1254   -2.6785   -5.9027 C   0  0  0  0  0  0  0  0  0  0  0  0
   -0.8325   -0.7252   -1.8556 C   0  0  0  0  0  0  0  0  0  0  0  0
   -3.0189   -2.7003   -4.3862 C   0  0  0  0  0  0  0  0  0  0  0  0
   -1.8736   -1.7251   -2.3579 C   0  0  0  0  0  0  0  0  0  0  0  0
   -1.9540   -1.7248   -3.8854 C   0  0  0  0  0  0  0  0  0  0  0  0
   -1.6824   -0.4861    0.1252 H   0  0  0  0  0  0  0  0  0  0  0  0
    0.0236   -0.0237   -0.0016 H   0  0  0  0  0  0  0  0  0  0  0  0
   -0.4280   -1.7371    0.0191 H   0  0  0  0  0  0  0  0  0  0  0  0
   -3.3972   -1.6810   -6.2628 H   0  0  0  0  0  0  0  0  0  0  0  0
   -2.1761   -2.9649   -6.3667 H   0  0  0  0  0  0  0  0  0  0  0  0
   -3.8935   -3.3821   -6.2387 H   0  0  0  0  0  0  0  0  0  0  0  0
    0.1473   -0.9587   -2.2881 H   0  0  0  0  0  0  0  0  0  0  0  0
   -1.0991    0.2864   -2.1832 H   0  0  0  0  0  0  0  0  0  0  0  0
   -2.7762   -3.7176   -4.0576 H   0  0  0  0  0  0  0  0  0  0  0  0
   -3.9927   -2.4431   -3.9536 H   0  0  0  0  0  0  0  0  0  0  0  0
   -2.8557   -1.4750   -1.9383 H   0  0  0  0  0  0  0  0  0  0  0  0
   -1.6177   -2.7312   -2.0036 H   0  0  0  0  0  0  0  0  0  0  0  0
   -0.9783   -1.9988   -4.3048 H   0  0  0  0  0  0  0  0  0  0  0  0
   -2.1860   -0.7135   -4.2409 H   0  0  0  0  0  0  0  0  0  0  0  0
  1  3  1  0  0  0  0
  2  4  1  0  0  0  0
  3  5  1  0  0  0  0
  4  6  1  0  0  0  0
  5  6  1  0  0  0  0
  1  7  1  0  0  0  0
  1  8  1  0  0  0  0
  1  9  1  0  0  0  0
  2 10  1  0  0  0  0
  2 11  1  0  0  0  0
  2 12  1  0  0  0  0
  3 13  1  0  0  0  0
  3 14  1  0  0  0  0
  4 15  1  0  0  0  0
  4 16  1  0  0  0  0
  5 17  1  0  0  0  0
  5 18  1  0  0  0  0
  6 19  1  0  0  0  0
  6 20  1  0  0  0  0
M  END
$$$$
