CUP08002_AM1BCC_v1_0
  -OEChem-10241310023D

 17 16  0     1  0  0  0  0  0999 V2000
   -0.4105    0.8713    0.5831 C   0  0  0  0  0  0  0  0  0  0  0  0
   -0.8984    1.6182    2.9260 C   0  0  0  0  0  0  0  0  0  0  0  0
   -0.1798    0.5713    2.0620 C   0  0  1  0  0  0  0  0  0  0  0  0
   -1.1456    2.3142    5.1728 N   0  3  0  0  0  0  0  0  0  0  0  0
    0.1115   -1.7992    2.1708 N   0  3  0  0  0  0  0  0  0  0  0  0
   -0.8322    2.1279    6.3460 O   0  5  0  0  0  0  0  0  0  0  0  0
   -1.8903    3.1599    4.6754 O   0  0  0  0  0  0  0  0  0  0  0  0
   -0.3996   -2.8715    2.4855 O   0  5  0  0  0  0  0  0  0  0  0  0
    1.2246   -1.5621    1.7017 O   0  0  0  0  0  0  0  0  0  0  0  0
   -0.5271    1.3983    4.2882 O   0  0  0  0  0  0  0  0  0  0  0  0
   -0.7551   -0.6999    2.3853 O   0  0  0  0  0  0  0  0  0  0  0  0
   -1.4778    0.8306    0.3381 H   0  0  0  0  0  0  0  0  0  0  0  0
   -0.0274    1.8610    0.3157 H   0  0  0  0  0  0  0  0  0  0  0  0
    0.0841    0.1301   -0.0526 H   0  0  0  0  0  0  0  0  0  0  0  0
   -0.5880    2.6236    2.6162 H   0  0  0  0  0  0  0  0  0  0  0  0
   -1.9844    1.5022    2.8180 H   0  0  0  0  0  0  0  0  0  0  0  0
    0.8873    0.6129    2.3142 H   0  0  0  0  0  0  0  0  0  0  0  0
  1  3  1  0  0  0  0
  2  3  1  0  0  0  0
  2 10  1  0  0  0  0
  3 11  1  0  0  0  0
  4  6  1  0  0  0  0
  4  7  2  0  0  0  0
  4 10  1  0  0  0  0
  5  8  1  0  0  0  0
  5  9  2  0  0  0  0
  5 11  1  0  0  0  0
  1 12  1  0  0  0  0
  1 13  1  0  0  0  0
  1 14  1  0  0  0  0
  2 15  1  0  0  0  0
  2 16  1  0  0  0  0
  3 17  1  0  0  0  0
M  CHG  4   4   1   5   1   6  -1   8  -1
M  END
$$$$
