1_methyl_imidazole
  -OEChem-10241310033D

 12 12  0     0  0  0  0  0  0999 V2000
    2.0280   -0.7312   -0.6604 C   0  0  0  0  0  0  0  0  0  0  0  0
    0.6793   -0.7426   -0.3926 C   0  0  0  0  0  0  0  0  0  0  0  0
    1.3580   -2.6792   -1.1960 C   0  0  0  0  0  0  0  0  0  0  0  0
   -1.0811   -2.5087   -0.6452 C   0  0  0  0  0  0  0  0  0  0  0  0
    2.4441   -1.9395   -1.1608 N   0  0  0  0  0  0  0  0  0  0  0  0
    0.2641   -1.9971   -0.7406 N   0  0  0  0  0  0  0  0  0  0  0  0
    2.7201    0.0860   -0.5187 H   0  0  0  0  0  0  0  0  0  0  0  0
    0.0049    0.0050    0.0010 H   0  0  0  0  0  0  0  0  0  0  0  0
    1.3020   -3.7038   -1.5375 H   0  0  0  0  0  0  0  0  0  0  0  0
   -1.1161   -3.2115    0.1914 H   0  0  0  0  0  0  0  0  0  0  0  0
   -1.7748   -1.6800   -0.4775 H   0  0  0  0  0  0  0  0  0  0  0  0
   -1.3436   -3.0119   -1.5799 H   0  0  0  0  0  0  0  0  0  0  0  0
  1  2  2  0  0  0  0
  1  5  1  0  0  0  0
  2  6  1  0  0  0  0
  3  5  2  0  0  0  0
  3  6  1  0  0  0  0
  4  6  1  0  0  0  0
  1  7  1  0  0  0  0
  2  8  1  0  0  0  0
  3  9  1  0  0  0  0
  4 10  1  0  0  0  0
  4 11  1  0  0  0  0
  4 12  1  0  0  0  0
M  END
$$$$
