chlorodifluoromethane
  -OEChem-10241310033D

  5  4  0     0  0  0  0  0  0999 V2000
    0.0000    0.0000    0.0000 C   0  0  0  0  0  0  0  0  0  0  0  0
   -1.3188   -0.3121   -0.0160 F   0  0  0  0  0  0  0  0  0  0  0  0
    0.5088   -0.4893    1.1571 F   0  0  0  0  0  0  0  0  0  0  0  0
    0.8152   -0.7284   -1.3800 Cl  0  0  0  0  0  0  0  0  0  0  0  0
    0.1169    1.0867   -0.0180 H   0  0  0  0  0  0  0  0  0  0  0  0
  1  2  1  0  0  0  0
  1  3  1  0  0  0  0
  1  4  1  0  0  0  0
  1  5  1  0  0  0  0
M  END
$$$$
