SAMPL4_023
  -OEChem-10241310023D

 40 41  0     0  0  0  0  0  0999 V2000
    4.6570    1.3350    7.0000 C   0  0  0  0  0  0  0  0  0  0  0  0
   -0.7640   -3.2210    5.8390 C   0  0  0  0  0  0  0  0  0  0  0  0
    4.9590   -0.0250    6.9300 C   0  0  0  0  0  0  0  0  0  0  0  0
    3.6980    1.8810    6.1470 C   0  0  0  0  0  0  0  0  0  0  0  0
    0.5120   -3.7690    5.9620 C   0  0  0  0  0  0  0  0  0  0  0  0
   -0.9420   -2.0110    5.1700 C   0  0  0  0  0  0  0  0  0  0  0  0
    4.3010   -0.8390    6.0070 C   0  0  0  0  0  0  0  0  0  0  0  0
    3.0400    1.0680    5.2240 C   0  0  0  0  0  0  0  0  0  0  0  0
    1.6110   -3.1070    5.4160 C   0  0  0  0  0  0  0  0  0  0  0  0
    0.1570   -1.3480    4.6230 C   0  0  0  0  0  0  0  0  0  0  0  0
    3.3420   -0.2920    5.1540 C   0  0  0  0  0  0  0  0  0  0  0  0
    1.4340   -1.8960    4.7460 C   0  0  0  0  0  0  0  0  0  0  0  0
    1.5710   -0.4880   -1.7140 C   0  0  0  0  0  0  0  0  0  0  0  0
    0.1110   -1.8860   -0.4160 C   0  0  0  0  0  0  0  0  0  0  0  0
    1.6470   -0.4040    0.6860 C   0  0  0  0  0  0  0  0  0  0  0  0
    2.0250   -1.2580    1.8820 C   0  0  0  0  0  0  0  0  0  0  0  0
    2.6280   -1.1750    4.1520 C   0  0  0  0  0  0  0  0  0  0  0  0
    1.4310   -1.2600   -0.4800 N   0  0  0  0  0  0  0  0  0  0  0  0
    2.2690   -0.4190    3.0030 O   0  0  0  0  0  0  0  0  0  0  0  0
    5.1680    1.9680    7.7190 H   0  0  0  0  0  0  0  0  0  0  0  0
   -1.6200   -3.7380    6.2640 H   0  0  0  0  0  0  0  0  0  0  0  0
    5.7050   -0.4510    7.5940 H   0  0  0  0  0  0  0  0  0  0  0  0
    3.4620    2.9400    6.2020 H   0  0  0  0  0  0  0  0  0  0  0  0
    0.6510   -4.7120    6.4830 H   0  0  0  0  0  0  0  0  0  0  0  0
   -1.9360   -1.5840    5.0730 H   0  0  0  0  0  0  0  0  0  0  0  0
    4.5430   -1.8970    5.9590 H   0  0  0  0  0  0  0  0  0  0  0  0
    2.2950    1.5020    4.5640 H   0  0  0  0  0  0  0  0  0  0  0  0
    2.6020   -3.5410    5.5170 H   0  0  0  0  0  0  0  0  0  0  0  0
    0.0090   -0.4050    4.1030 H   0  0  0  0  0  0  0  0  0  0  0  0
    2.5590   -0.0220   -1.7560 H   0  0  0  0  0  0  0  0  0  0  0  0
    0.8100    0.2960   -1.7580 H   0  0  0  0  0  0  0  0  0  0  0  0
    1.4520   -1.1400   -2.5830 H   0  0  0  0  0  0  0  0  0  0  0  0
    0.0130   -2.4620    0.5080 H   0  0  0  0  0  0  0  0  0  0  0  0
   -0.0300   -2.5590   -1.2660 H   0  0  0  0  0  0  0  0  0  0  0  0
   -0.6710   -1.1230   -0.4400 H   0  0  0  0  0  0  0  0  0  0  0  0
    0.7270    0.1580    0.8740 H   0  0  0  0  0  0  0  0  0  0  0  0
    2.4530    0.2980    0.4490 H   0  0  0  0  0  0  0  0  0  0  0  0
    2.9440   -1.8140    1.6700 H   0  0  0  0  0  0  0  0  0  0  0  0
    1.2300   -1.9660    2.1380 H   0  0  0  0  0  0  0  0  0  0  0  0
    3.3380   -1.9220    3.7750 H   0  0  0  0  0  0  0  0  0  0  0  0
  1  3  2  0  0  0  0
  1  4  1  0  0  0  0
  2  5  2  0  0  0  0
  2  6  1  0  0  0  0
  3  7  1  0  0  0  0
  4  8  2  0  0  0  0
  5  9  1  0  0  0  0
  6 10  2  0  0  0  0
  7 11  2  0  0  0  0
  8 11  1  0  0  0  0
  9 12  2  0  0  0  0
 10 12  1  0  0  0  0
 11 17  1  0  0  0  0
 12 17  1  0  0  0  0
 13 18  1  0  0  0  0
 14 18  1  0  0  0  0
 15 16  1  0  0  0  0
 15 18  1  0  0  0  0
 16 19  1  0  0  0  0
 17 19  1  0  0  0  0
  1 20  1  0  0  0  0
  2 21  1  0  0  0  0
  3 22  1  0  0  0  0
  4 23  1  0  0  0  0
  5 24  1  0  0  0  0
  6 25  1  0  0  0  0
  7 26  1  0  0  0  0
  8 27  1  0  0  0  0
  9 28  1  0  0  0  0
 10 29  1  0  0  0  0
 13 30  1  0  0  0  0
 13 31  1  0  0  0  0
 13 32  1  0  0  0  0
 14 33  1  0  0  0  0
 14 34  1  0  0  0  0
 14 35  1  0  0  0  0
 15 36  1  0  0  0  0
 15 37  1  0  0  0  0
 16 38  1  0  0  0  0
 16 39  1  0  0  0  0
 17 40  1  0  0  0  0
M  END
$$$$
