23_dimethylphenol
  -OEChem-10241310023D

 19 19  0     0  0  0  0  0  0999 V2000
    0.8159   -0.4438    0.5629 C   0  0  0  0  0  0  0  0  0  0  0  0
    1.8852   -1.0364   -0.1086 C   0  0  0  0  0  0  0  0  0  0  0  0
    0.7945   -0.4211    1.9574 C   0  0  0  0  0  0  0  0  0  0  0  0
    2.9331   -1.6064    0.6143 C   0  0  0  0  0  0  0  0  0  0  0  0
    2.9117   -1.5837    2.0089 C   0  0  0  0  0  0  0  0  0  0  0  0
    1.8424   -0.9911    2.6804 C   0  0  0  0  0  0  0  0  0  0  0  0
    4.0662   -2.2347   -0.1287 C   0  0  0  0  0  0  0  0  0  0  0  0
    4.0323   -2.1935    2.7890 C   0  0  0  0  0  0  0  0  0  0  0  0
    1.8038   -0.9591    4.0421 O   0  0  0  0  0  0  0  0  0  0  0  0
   -0.0003    0.0000   -0.0000 H   0  0  0  0  0  0  0  0  0  0  0  0
    1.8931   -1.0492   -1.1955 H   0  0  0  0  0  0  0  0  0  0  0  0
   -0.0410    0.0432    2.4738 H   0  0  0  0  0  0  0  0  0  0  0  0
    4.8418   -2.5664    0.5712 H   0  0  0  0  0  0  0  0  0  0  0  0
    3.7269   -3.1005   -0.7106 H   0  0  0  0  0  0  0  0  0  0  0  0
    4.5144   -1.5286   -0.8387 H   0  0  0  0  0  0  0  0  0  0  0  0
    4.5386   -1.4268    3.3855 H   0  0  0  0  0  0  0  0  0  0  0  0
    3.6639   -2.9761    3.4626 H   0  0  0  0  0  0  0  0  0  0  0  0
    4.7666   -2.6626    2.1235 H   0  0  0  0  0  0  0  0  0  0  0  0
    1.1485   -0.2945    4.3214 H   0  0  0  0  0  0  0  0  0  0  0  0
  1  2  1  0  0  0  0
  1  3  2  0  0  0  0
  2  4  2  0  0  0  0
  3  6  1  0  0  0  0
  4  5  1  0  0  0  0
  4  7  1  0  0  0  0
  5  6  2  0  0  0  0
  5  8  1  0  0  0  0
  6  9  1  0  0  0  0
  1 10  1  0  0  0  0
  2 11  1  0  0  0  0
  3 12  1  0  0  0  0
  7 13  1  0  0  0  0
  7 14  1  0  0  0  0
  7 15  1  0  0  0  0
  8 16  1  0  0  0  0
  8 17  1  0  0  0  0
  8 18  1  0  0  0  0
  9 19  1  0  0  0  0
M  END
$$$$
