4_fluorophenol
  -OEChem-10241310033D

 13 13  0     0  0  0  0  0  0999 V2000
    0.8178   -0.4385    0.5644 C   0  0  0  0  0  0  0  0  0  0  0  0
    2.9371   -1.5972    0.6197 C   0  0  0  0  0  0  0  0  0  0  0  0
    0.7994   -0.4058    1.9588 C   0  0  0  0  0  0  0  0  0  0  0  0
    2.9185   -1.5646    2.0141 C   0  0  0  0  0  0  0  0  0  0  0  0
    1.8867   -1.0341   -0.1051 C   0  0  0  0  0  0  0  0  0  0  0  0
    1.8497   -0.9689    2.6836 C   0  0  0  0  0  0  0  0  0  0  0  0
    1.9057   -1.0662   -1.4658 O   0  0  0  0  0  0  0  0  0  0  0  0
    1.8324   -0.9378    4.0227 F   0  0  0  0  0  0  0  0  0  0  0  0
   -0.0038    0.0018    0.0059 H   0  0  0  0  0  0  0  0  0  0  0  0
    3.7723   -2.0626    0.1035 H   0  0  0  0  0  0  0  0  0  0  0  0
   -0.0326    0.0575    2.4807 H   0  0  0  0  0  0  0  0  0  0  0  0
    3.7362   -2.0021    2.5792 H   0  0  0  0  0  0  0  0  0  0  0  0
    2.6765   -1.5863   -1.7576 H   0  0  0  0  0  0  0  0  0  0  0  0
  1  3  1  0  0  0  0
  1  5  2  0  0  0  0
  2  4  2  0  0  0  0
  2  5  1  0  0  0  0
  3  6  2  0  0  0  0
  4  6  1  0  0  0  0
  5  7  1  0  0  0  0
  6  8  1  0  0  0  0
  1  9  1  0  0  0  0
  2 10  1  0  0  0  0
  3 11  1  0  0  0  0
  4 12  1  0  0  0  0
  7 13  1  0  0  0  0
M  END
$$$$
