cyclopentanol
  -OEChem-10241310043D

 16 16  0     0  0  0  0  0  0999 V2000
   -1.1981   -0.6287   -1.7137 C   0  0  0  0  0  0  0  0  0  0  0  0
   -0.3739    0.3943   -0.9495 C   0  0  0  0  0  0  0  0  0  0  0  0
   -2.0363    0.2321   -2.6473 C   0  0  0  0  0  0  0  0  0  0  0  0
   -1.3064    1.5889   -0.7512 C   0  0  0  0  0  0  0  0  0  0  0  0
   -2.4247    1.4297   -1.7855 C   0  0  0  0  0  0  0  0  0  0  0  0
   -3.6622    1.1760   -1.1275 O   0  0  0  0  0  0  0  0  0  0  0  0
   -0.5744   -1.3455   -2.2551 H   0  0  0  0  0  0  0  0  0  0  0  0
   -1.8450   -1.1855   -1.0256 H   0  0  0  0  0  0  0  0  0  0  0  0
    0.0009    0.0003   -0.0002 H   0  0  0  0  0  0  0  0  0  0  0  0
    0.4926    0.6983   -1.5495 H   0  0  0  0  0  0  0  0  0  0  0  0
   -1.4188    0.5620   -3.4912 H   0  0  0  0  0  0  0  0  0  0  0  0
   -2.8994   -0.3177   -3.0340 H   0  0  0  0  0  0  0  0  0  0  0  0
   -1.7033    1.6044    0.2701 H   0  0  0  0  0  0  0  0  0  0  0  0
   -0.7519    2.5204   -0.9088 H   0  0  0  0  0  0  0  0  0  0  0  0
   -2.5554    2.3334   -2.3876 H   0  0  0  0  0  0  0  0  0  0  0  0
   -4.0599    2.0408   -0.9375 H   0  0  0  0  0  0  0  0  0  0  0  0
  1  2  1  0  0  0  0
  1  3  1  0  0  0  0
  2  4  1  0  0  0  0
  3  5  1  0  0  0  0
  4  5  1  0  0  0  0
  5  6  1  0  0  0  0
  1  7  1  0  0  0  0
  1  8  1  0  0  0  0
  2  9  1  0  0  0  0
  2 10  1  0  0  0  0
  3 11  1  0  0  0  0
  3 12  1  0  0  0  0
  4 13  1  0  0  0  0
  4 14  1  0  0  0  0
  5 15  1  0  0  0  0
  6 16  1  0  0  0  0
M  END
$$$$
