mfc
  -OEChem-09251417133D

 12 11  0     0  0  0  0  0  0999 V2000
    1.1270    0.4020    1.0640 H   0  0  0  0  0  0  0  0  0  0  0  0
    0.9100   -0.0490    0.1030 C   0  0  0  0  0  0  0  0  0  0  0  0
    1.1080   -1.1380    0.1670 H   0  0  0  0  0  0  0  0  0  0  0  0
    1.8270    0.5490   -0.9350 C   0  0  0  0  0  0  0  0  0  0  0  0
    2.8890    0.3680   -0.6780 H   0  0  0  0  0  0  0  0  0  0  0  0
    1.6780    0.0870   -1.9150 H   0  0  0  0  0  0  0  0  0  0  0  0
    1.7200    1.6200   -1.0310 H   0  0  0  0  0  0  0  0  0  0  0  0
   -0.8130    0.2310   -0.3400 S   0  0  0  0  0  0  0  0  0  0  0  0
   -1.6050   -0.5970    1.0310 C   0  0  0  0  0  0  0  0  0  0  0  0
   -2.6990   -0.5140    0.9610 H   0  0  0  0  0  0  0  0  0  0  0  0
   -1.3350   -1.6420    1.0660 H   0  0  0  0  0  0  0  0  0  0  0  0
   -1.3020   -0.1070    1.9960 H   0  0  0  0  0  0  0  0  0  0  0  0
  1  2  1  0  0  0  0
  2  3  1  0  0  0  0
  2  4  1  0  0  0  0
  2  8  1  0  0  0  0
  4  5  1  0  0  0  0
  4  6  1  0  0  0  0
  4  7  1  0  0  0  0
  8  9  1  0  0  0  0
  9 10  1  0  0  0  0
  9 11  1  0  0  0  0
  9 12  1  0  0  0  0
M  END
$$$$
