morpholine
  -OEChem-10241310023D

 15 15  0     0  0  0  0  0  0999 V2000
    1.0249   -0.3810    0.0561 C   0  0  0  0  0  0  0  0  0  0  0  0
    2.4946   -2.1399   -0.6472 C   0  0  0  0  0  0  0  0  0  0  0  0
    1.9946    0.6358   -0.5350 C   0  0  0  0  0  0  0  0  0  0  0  0
    3.4375   -1.0908   -1.2254 C   0  0  0  0  0  0  0  0  0  0  0  0
    1.1099   -1.6577   -0.6600 N   0  0  0  0  0  0  0  0  0  0  0  0
    3.3303    0.1303   -0.4913 O   0  0  0  0  0  0  0  0  0  0  0  0
    1.2540   -0.5448    1.1162 H   0  0  0  0  0  0  0  0  0  0  0  0
    0.0016    0.0030   -0.0071 H   0  0  0  0  0  0  0  0  0  0  0  0
    2.5623   -3.0620   -1.2333 H   0  0  0  0  0  0  0  0  0  0  0  0
    2.7852   -2.3776    0.3833 H   0  0  0  0  0  0  0  0  0  0  0  0
    1.7340    0.8885   -1.5700 H   0  0  0  0  0  0  0  0  0  0  0  0
    1.9690    1.5610    0.0493 H   0  0  0  0  0  0  0  0  0  0  0  0
    4.4734   -1.4361   -1.1486 H   0  0  0  0  0  0  0  0  0  0  0  0
    3.2286   -0.8992   -2.2849 H   0  0  0  0  0  0  0  0  0  0  0  0
    0.5069   -2.3431   -0.2064 H   0  0  0  0  0  0  0  0  0  0  0  0
  1  3  1  0  0  0  0
  1  5  1  0  0  0  0
  2  4  1  0  0  0  0
  2  5  1  0  0  0  0
  3  6  1  0  0  0  0
  4  6  1  0  0  0  0
  1  7  1  0  0  0  0
  1  8  1  0  0  0  0
  2  9  1  0  0  0  0
  2 10  1  0  0  0  0
  3 11  1  0  0  0  0
  3 12  1  0  0  0  0
  4 13  1  0  0  0  0
  4 14  1  0  0  0  0
  5 15  1  0  0  0  0
M  END
$$$$
