24_dimethylpentane
  -OEChem-10241310033D

 23 22  0     0  0  0  0  0  0999 V2000
   -1.7459    1.5253   -1.1965 C   0  0  0  0  0  0  0  0  0  0  0  0
   -0.2011   -0.4405   -1.0963 C   0  0  0  0  0  0  0  0  0  0  0  0
   -2.8543    0.8035    1.2721 C   0  0  0  0  0  0  0  0  0  0  0  0
   -3.7386   -1.5303    1.4504 C   0  0  0  0  0  0  0  0  0  0  0  0
   -2.6543   -0.8084   -0.6980 C   0  0  0  0  0  0  0  0  0  0  0  0
   -1.6117    0.0267   -1.4683 C   0  0  0  0  0  0  0  0  0  0  0  0
   -2.6485   -0.6472    0.8355 C   0  0  0  0  0  0  0  0  0  0  0  0
   -0.9470    2.0836   -1.6964 H   0  0  0  0  0  0  0  0  0  0  0  0
   -2.6961    1.9153   -1.5731 H   0  0  0  0  0  0  0  0  0  0  0  0
   -1.6882    1.7410   -0.1243 H   0  0  0  0  0  0  0  0  0  0  0  0
    0.5544    0.1117   -1.6654 H   0  0  0  0  0  0  0  0  0  0  0  0
    0.0004   -0.2893   -0.0303 H   0  0  0  0  0  0  0  0  0  0  0  0
   -0.0724   -1.5051   -1.3187 H   0  0  0  0  0  0  0  0  0  0  0  0
   -2.0191    1.4367    0.9581 H   0  0  0  0  0  0  0  0  0  0  0  0
   -3.7758    1.2183    0.8500 H   0  0  0  0  0  0  0  0  0  0  0  0
   -2.9210    0.8749    2.3632 H   0  0  0  0  0  0  0  0  0  0  0  0
   -3.7237   -1.4629    2.5434 H   0  0  0  0  0  0  0  0  0  0  0  0
   -4.7346   -1.2313    1.1062 H   0  0  0  0  0  0  0  0  0  0  0  0
   -3.5870   -2.5807    1.1801 H   0  0  0  0  0  0  0  0  0  0  0  0
   -2.5022   -1.8697   -0.9376 H   0  0  0  0  0  0  0  0  0  0  0  0
   -3.6538   -0.5522   -1.0753 H   0  0  0  0  0  0  0  0  0  0  0  0
   -1.7363   -0.1422   -2.5442 H   0  0  0  0  0  0  0  0  0  0  0  0
   -1.6874   -0.9947    1.2321 H   0  0  0  0  0  0  0  0  0  0  0  0
  1  6  1  0  0  0  0
  2  6  1  0  0  0  0
  3  7  1  0  0  0  0
  4  7  1  0  0  0  0
  5  6  1  0  0  0  0
  5  7  1  0  0  0  0
  1  8  1  0  0  0  0
  1  9  1  0  0  0  0
  1 10  1  0  0  0  0
  2 11  1  0  0  0  0
  2 12  1  0  0  0  0
  2 13  1  0  0  0  0
  3 14  1  0  0  0  0
  3 15  1  0  0  0  0
  3 16  1  0  0  0  0
  4 17  1  0  0  0  0
  4 18  1  0  0  0  0
  4 19  1  0  0  0  0
  5 20  1  0  0  0  0
  5 21  1  0  0  0  0
  6 22  1  0  0  0  0
  7 23  1  0  0  0  0
M  END
$$$$
