12_dichlorobenzene
  -OEChem-10241310023D

 12 12  0     0  0  0  0  0  0999 V2000
    1.8846   -1.0376   -0.1090 C   0  0  0  0  0  0  0  0  0  0  0  0
    0.8176   -0.4410    0.5626 C   0  0  0  0  0  0  0  0  0  0  0  0
    2.9348   -1.6038    0.6137 C   0  0  0  0  0  0  0  0  0  0  0  0
    0.8008   -0.4105    1.9570 C   0  0  0  0  0  0  0  0  0  0  0  0
    2.9180   -1.5734    2.0082 C   0  0  0  0  0  0  0  0  0  0  0  0
    1.8509   -0.9767    2.6799 C   0  0  0  0  0  0  0  0  0  0  0  0
    4.2486   -2.2906    2.8467 Cl  0  0  0  0  0  0  0  0  0  0  0  0
    1.7705   -0.9089    4.4056 Cl  0  0  0  0  0  0  0  0  0  0  0  0
    1.8980   -1.0610   -1.1946 H   0  0  0  0  0  0  0  0  0  0  0  0
    0.0003   -0.0005   -0.0003 H   0  0  0  0  0  0  0  0  0  0  0  0
    3.7585   -2.0638    0.0736 H   0  0  0  0  0  0  0  0  0  0  0  0
   -0.0387    0.0589    2.4638 H   0  0  0  0  0  0  0  0  0  0  0  0
  1  2  1  0  0  0  0
  1  3  2  0  0  0  0
  2  4  2  0  0  0  0
  3  5  1  0  0  0  0
  4  6  1  0  0  0  0
  5  6  2  0  0  0  0
  5  7  1  0  0  0  0
  6  8  1  0  0  0  0
  1  9  1  0  0  0  0
  2 10  1  0  0  0  0
  3 11  1  0  0  0  0
  4 12  1  0  0  0  0
M  END
$$$$
