methyl_butanoate
  -OEChem-10241310033D

 17 16  0     0  0  0  0  0  0999 V2000
    2.6749   -0.7723    3.1243 C   0  0  0  0  0  0  0  0  0  0  0  0
   -0.3728   -0.6665    0.7471 C   0  0  0  0  0  0  0  0  0  0  0  0
    4.8603   -1.0201    3.9967 C   0  0  0  0  0  0  0  0  0  0  0  0
    1.8852   -0.8881    1.8405 C   0  0  0  0  0  0  0  0  0  0  0  0
    0.4050   -0.5787    2.0501 C   0  0  0  0  0  0  0  0  0  0  0  0
    2.2128   -0.4519    4.2107 O   0  0  0  0  0  0  0  0  0  0  0  0
    3.9805   -1.0839    2.8696 O   0  0  0  0  0  0  0  0  0  0  0  0
   -1.4296   -0.4402    0.9203 H   0  0  0  0  0  0  0  0  0  0  0  0
    0.0116    0.0477    0.0118 H   0  0  0  0  0  0  0  0  0  0  0  0
   -0.3065   -1.6715    0.3179 H   0  0  0  0  0  0  0  0  0  0  0  0
    5.6387   -0.2761    3.8106 H   0  0  0  0  0  0  0  0  0  0  0  0
    5.3117   -2.0013    4.1638 H   0  0  0  0  0  0  0  0  0  0  0  0
    4.2861   -0.7302    4.8799 H   0  0  0  0  0  0  0  0  0  0  0  0
    2.3099   -0.1867    1.1135 H   0  0  0  0  0  0  0  0  0  0  0  0
    1.9989   -1.9095    1.4604 H   0  0  0  0  0  0  0  0  0  0  0  0
   -0.0246   -1.2800    2.7756 H   0  0  0  0  0  0  0  0  0  0  0  0
    0.2888    0.4258    2.4744 H   0  0  0  0  0  0  0  0  0  0  0  0
  1  4  1  0  0  0  0
  1  6  2  0  0  0  0
  1  7  1  0  0  0  0
  2  5  1  0  0  0  0
  3  7  1  0  0  0  0
  4  5  1  0  0  0  0
  2  8  1  0  0  0  0
  2  9  1  0  0  0  0
  2 10  1  0  0  0  0
  3 11  1  0  0  0  0
  3 12  1  0  0  0  0
  3 13  1  0  0  0  0
  4 14  1  0  0  0  0
  4 15  1  0  0  0  0
  5 16  1  0  0  0  0
  5 17  1  0  0  0  0
M  END
$$$$
