m_xylene
  -OEChem-10241310023D

 18 18  0     0  0  0  0  0  0999 V2000
    0.8324   -0.3948    0.5751 C   0  0  0  0  0  0  0  0  0  0  0  0
    1.8991   -1.0135   -0.0768 C   0  0  0  0  0  0  0  0  0  0  0  0
    0.8349   -0.2829    1.9655 C   0  0  0  0  0  0  0  0  0  0  0  0
    2.9708   -1.4085    2.0522 C   0  0  0  0  0  0  0  0  0  0  0  0
    2.9683   -1.5204    0.6618 C   0  0  0  0  0  0  0  0  0  0  0  0
    1.9042   -0.7896    2.7040 C   0  0  0  0  0  0  0  0  0  0  0  0
    4.1091   -2.1808   -0.0358 C   0  0  0  0  0  0  0  0  0  0  0  0
    1.9062   -0.6713    4.1907 C   0  0  0  0  0  0  0  0  0  0  0  0
   -0.0002   -0.0005    0.0000 H   0  0  0  0  0  0  0  0  0  0  0  0
    1.8884   -1.0964   -1.1602 H   0  0  0  0  0  0  0  0  0  0  0  0
   -0.0005    0.2005    2.4647 H   0  0  0  0  0  0  0  0  0  0  0  0
    3.8041   -1.8044    2.6283 H   0  0  0  0  0  0  0  0  0  0  0  0
    4.8781   -2.4787    0.6874 H   0  0  0  0  0  0  0  0  0  0  0  0
    3.7793   -3.0746   -0.5810 H   0  0  0  0  0  0  0  0  0  0  0  0
    4.5671   -1.5095   -0.7740 H   0  0  0  0  0  0  0  0  0  0  0  0
    2.8209   -0.1720    4.5329 H   0  0  0  0  0  0  0  0  0  0  0  0
    1.0418   -0.0952    4.5457 H   0  0  0  0  0  0  0  0  0  0  0  0
    1.8484   -1.6578    4.6690 H   0  0  0  0  0  0  0  0  0  0  0  0
  1  2  1  0  0  0  0
  1  3  2  0  0  0  0
  2  5  2  0  0  0  0
  3  6  1  0  0  0  0
  4  5  1  0  0  0  0
  4  6  2  0  0  0  0
  5  7  1  0  0  0  0
  6  8  1  0  0  0  0
  1  9  1  0  0  0  0
  2 10  1  0  0  0  0
  3 11  1  0  0  0  0
  4 12  1  0  0  0  0
  7 13  1  0  0  0  0
  7 14  1  0  0  0  0
  7 15  1  0  0  0  0
  8 16  1  0  0  0  0
  8 17  1  0  0  0  0
  8 18  1  0  0  0  0
M  END
$$$$
