methyl_trifluoroacetate
  -OEChem-10241310043D

 11 10  0     0  0  0  0  0  0999 V2000
    0.1400   -1.0129    2.4552 C   0  0  0  0  0  0  0  0  0  0  0  0
   -0.4486   -0.9868    0.1664 C   0  0  0  0  0  0  0  0  0  0  0  0
   -0.4290   -1.1781    3.8267 C   0  0  0  0  0  0  0  0  0  0  0  0
    1.3259   -0.8196    2.2247 O   0  0  0  0  0  0  0  0  0  0  0  0
   -0.8571   -1.1186    1.5318 O   0  0  0  0  0  0  0  0  0  0  0  0
   -1.7694   -1.3875    3.8018 F   0  0  0  0  0  0  0  0  0  0  0  0
    0.1220   -2.2316    4.4808 F   0  0  0  0  0  0  0  0  0  0  0  0
   -0.2161   -0.0810    4.5963 F   0  0  0  0  0  0  0  0  0  0  0  0
    0.2584   -0.1585    0.0751 H   0  0  0  0  0  0  0  0  0  0  0  0
   -1.3245   -0.8029   -0.4608 H   0  0  0  0  0  0  0  0  0  0  0  0
    0.0362   -1.9132   -0.1507 H   0  0  0  0  0  0  0  0  0  0  0  0
  1  3  1  0  0  0  0
  1  4  2  0  0  0  0
  1  5  1  0  0  0  0
  2  5  1  0  0  0  0
  3  6  1  0  0  0  0
  3  7  1  0  0  0  0
  3  8  1  0  0  0  0
  2  9  1  0  0  0  0
  2 10  1  0  0  0  0
  2 11  1  0  0  0  0
M  END
$$$$
