123_trimethylbenzene
  -OEChem-10241310023D

 21 21  0     0  0  0  0  0  0999 V2000
    1.8846   -1.0376   -0.1090 C   0  0  0  0  0  0  0  0  0  0  0  0
    0.8176   -0.4410    0.5626 C   0  0  0  0  0  0  0  0  0  0  0  0
    2.9348   -1.6038    0.6137 C   0  0  0  0  0  0  0  0  0  0  0  0
    0.8008   -0.4105    1.9570 C   0  0  0  0  0  0  0  0  0  0  0  0
    2.9180   -1.5734    2.0082 C   0  0  0  0  0  0  0  0  0  0  0  0
    1.8509   -0.9767    2.6799 C   0  0  0  0  0  0  0  0  0  0  0  0
   -0.3535    0.2345    2.6522 C   0  0  0  0  0  0  0  0  0  0  0  0
    4.0547   -2.1869    2.7585 C   0  0  0  0  0  0  0  0  0  0  0  0
    1.8327   -0.9442    4.1752 C   0  0  0  0  0  0  0  0  0  0  0  0
    1.8974   -1.0621   -1.1949 H   0  0  0  0  0  0  0  0  0  0  0  0
    0.0042   -0.0032   -0.0100 H   0  0  0  0  0  0  0  0  0  0  0  0
    3.7609   -2.0671    0.0806 H   0  0  0  0  0  0  0  0  0  0  0  0
   -0.3034    0.0415    3.7299 H   0  0  0  0  0  0  0  0  0  0  0  0
   -0.3571    1.3194    2.4907 H   0  0  0  0  0  0  0  0  0  0  0  0
   -1.3087   -0.1483    2.2721 H   0  0  0  0  0  0  0  0  0  0  0  0
    4.5585   -1.4296    3.3700 H   0  0  0  0  0  0  0  0  0  0  0  0
    3.7063   -2.9926    3.4161 H   0  0  0  0  0  0  0  0  0  0  0  0
    4.7888   -2.6286    2.0734 H   0  0  0  0  0  0  0  0  0  0  0  0
    2.7354   -0.4523    4.5532 H   0  0  0  0  0  0  0  0  0  0  0  0
    0.9553   -0.4025    4.5470 H   0  0  0  0  0  0  0  0  0  0  0  0
    1.7843   -1.9576    4.5908 H   0  0  0  0  0  0  0  0  0  0  0  0
  1  2  1  0  0  0  0
  1  3  2  0  0  0  0
  2  4  2  0  0  0  0
  3  5  1  0  0  0  0
  4  6  1  0  0  0  0
  4  7  1  0  0  0  0
  5  6  2  0  0  0  0
  5  8  1  0  0  0  0
  6  9  1  0  0  0  0
  1 10  1  0  0  0  0
  2 11  1  0  0  0  0
  3 12  1  0  0  0  0
  7 13  1  0  0  0  0
  7 14  1  0  0  0  0
  7 15  1  0  0  0  0
  8 16  1  0  0  0  0
  8 17  1  0  0  0  0
  8 18  1  0  0  0  0
  9 19  1  0  0  0  0
  9 20  1  0  0  0  0
  9 21  1  0  0  0  0
M  END
$$$$
