tert_butylbenzene
  -OEChem-10241310033D

 24 24  0     0  0  0  0  0  0999 V2000
   -2.1384   -2.7710    3.5731 C   0  0  0  0  0  0  0  0  0  0  0  0
   -0.9812   -2.0194    3.3700 C   0  0  0  0  0  0  0  0  0  0  0  0
   -3.2801   -2.5125    2.8145 C   0  0  0  0  0  0  0  0  0  0  0  0
   -0.9656   -1.0091    2.4084 C   0  0  0  0  0  0  0  0  0  0  0  0
   -3.2646   -1.5023    1.8528 C   0  0  0  0  0  0  0  0  0  0  0  0
   -2.1077   -0.7840    1.6815 C   0  0  0  0  0  0  0  0  0  0  0  0
   -1.0055    0.0255   -0.4341 C   0  0  0  0  0  0  0  0  0  0  0  0
   -1.7775    1.6835    1.2954 C   0  0  0  0  0  0  0  0  0  0  0  0
   -3.4286    0.4950   -0.1338 C   0  0  0  0  0  0  0  0  0  0  0  0
   -2.0904    0.3299    0.6216 C   0  0  0  0  0  0  0  0  0  0  0  0
   -2.1507   -3.5576    4.3220 H   0  0  0  0  0  0  0  0  0  0  0  0
   -0.0924   -2.2206    3.9609 H   0  0  0  0  0  0  0  0  0  0  0  0
   -4.1812   -3.0979    2.9729 H   0  0  0  0  0  0  0  0  0  0  0  0
   -0.0594   -0.4285    2.2572 H   0  0  0  0  0  0  0  0  0  0  0  0
   -4.1587   -1.3080    1.2663 H   0  0  0  0  0  0  0  0  0  0  0  0
   -0.9950    0.7883   -1.2214 H   0  0  0  0  0  0  0  0  0  0  0  0
    0.0000    0.0000    0.0000 H   0  0  0  0  0  0  0  0  0  0  0  0
   -1.1820   -0.9453   -0.9124 H   0  0  0  0  0  0  0  0  0  0  0  0
   -0.7879    1.6938    1.7653 H   0  0  0  0  0  0  0  0  0  0  0  0
   -1.7939    2.5015    0.5657 H   0  0  0  0  0  0  0  0  0  0  0  0
   -2.5137    1.9161    2.0739 H   0  0  0  0  0  0  0  0  0  0  0  0
   -3.3662    1.2992   -0.8768 H   0  0  0  0  0  0  0  0  0  0  0  0
   -3.7038   -0.4195   -0.6721 H   0  0  0  0  0  0  0  0  0  0  0  0
   -4.2482    0.7498    0.5482 H   0  0  0  0  0  0  0  0  0  0  0  0
  1  2  1  0  0  0  0
  1  3  2  0  0  0  0
  2  4  2  0  0  0  0
  3  5  1  0  0  0  0
  4  6  1  0  0  0  0
  5  6  2  0  0  0  0
  6 10  1  0  0  0  0
  7 10  1  0  0  0  0
  8 10  1  0  0  0  0
  9 10  1  0  0  0  0
  1 11  1  0  0  0  0
  2 12  1  0  0  0  0
  3 13  1  0  0  0  0
  4 14  1  0  0  0  0
  5 15  1  0  0  0  0
  7 16  1  0  0  0  0
  7 17  1  0  0  0  0
  7 18  1  0  0  0  0
  8 19  1  0  0  0  0
  8 20  1  0  0  0  0
  8 21  1  0  0  0  0
  9 22  1  0  0  0  0
  9 23  1  0  0  0  0
  9 24  1  0  0  0  0
M  END
$$$$
