oct_1_ene
  -OEChem-10241310043D

 24 23  0     0  0  0  0  0  0999 V2000
    1.6154    3.7428   -1.4011 C   0  0  0  0  0  0  0  0  0  0  0  0
    0.7151    3.0149   -0.7310 C   0  0  0  0  0  0  0  0  0  0  0  0
   -4.3233    5.0660    4.5410 C   0  0  0  0  0  0  0  0  0  0  0  0
   -0.7003    3.4498   -0.4852 C   0  0  0  0  0  0  0  0  0  0  0  0
   -4.0640    4.8405    3.0599 C   0  0  0  0  0  0  0  0  0  0  0  0
   -0.9900    3.5676    1.0132 C   0  0  0  0  0  0  0  0  0  0  0  0
   -2.6686    4.2644    2.8159 C   0  0  0  0  0  0  0  0  0  0  0  0
   -2.4017    4.0763    1.3210 C   0  0  0  0  0  0  0  0  0  0  0  0
    2.6290    3.3902   -1.5560 H   0  0  0  0  0  0  0  0  0  0  0  0
    1.3457    4.7119   -1.8063 H   0  0  0  0  0  0  0  0  0  0  0  0
    1.0130    2.0430   -0.3461 H   0  0  0  0  0  0  0  0  0  0  0  0
   -4.2584    4.1260    5.0982 H   0  0  0  0  0  0  0  0  0  0  0  0
   -3.5973    5.7674    4.9649 H   0  0  0  0  0  0  0  0  0  0  0  0
   -5.3247    5.4813    4.6914 H   0  0  0  0  0  0  0  0  0  0  0  0
   -1.3644    2.7090   -0.9438 H   0  0  0  0  0  0  0  0  0  0  0  0
   -0.9021    4.4093   -0.9763 H   0  0  0  0  0  0  0  0  0  0  0  0
   -4.8234    4.1573    2.6621 H   0  0  0  0  0  0  0  0  0  0  0  0
   -4.1727    5.7923    2.5271 H   0  0  0  0  0  0  0  0  0  0  0  0
   -0.8368    2.5971    1.5019 H   0  0  0  0  0  0  0  0  0  0  0  0
   -0.2716    4.2628    1.4668 H   0  0  0  0  0  0  0  0  0  0  0  0
   -2.5818    3.3046    3.3371 H   0  0  0  0  0  0  0  0  0  0  0  0
   -1.9145    4.9364    3.2429 H   0  0  0  0  0  0  0  0  0  0  0  0
   -3.1414    3.3866    0.8965 H   0  0  0  0  0  0  0  0  0  0  0  0
   -2.5370    5.0374    0.8095 H   0  0  0  0  0  0  0  0  0  0  0  0
  1  2  2  0  0  0  0
  2  4  1  0  0  0  0
  3  5  1  0  0  0  0
  4  6  1  0  0  0  0
  5  7  1  0  0  0  0
  6  8  1  0  0  0  0
  7  8  1  0  0  0  0
  1  9  1  0  0  0  0
  1 10  1  0  0  0  0
  2 11  1  0  0  0  0
  3 12  1  0  0  0  0
  3 13  1  0  0  0  0
  3 14  1  0  0  0  0
  4 15  1  0  0  0  0
  4 16  1  0  0  0  0
  5 17  1  0  0  0  0
  5 18  1  0  0  0  0
  6 19  1  0  0  0  0
  6 20  1  0  0  0  0
  7 21  1  0  0  0  0
  7 22  1  0  0  0  0
  8 23  1  0  0  0  0
  8 24  1  0  0  0  0
M  END
$$$$
