25_dimethyltetrahydrofuran
  -OEChem-10241310043D

 19 19  0     1  0  0  0  0  0999 V2000
    0.0426    0.3841    1.0264 C   0  0  0  0  0  0  0  0  0  0  0  0
   -1.3419    0.3843    1.6262 C   0  0  0  0  0  0  0  0  0  0  0  0
    0.7703   -0.5847    1.9435 C   0  0  2  0  0  0  0  0  0  0  0  0
   -1.5100   -1.0786    2.0019 C   0  0  2  0  0  0  0  0  0  0  0  0
    1.9442   -1.2789    1.2804 C   0  0  0  0  0  0  0  0  0  0  0  0
   -2.4703   -1.2999    3.1546 C   0  0  0  0  0  0  0  0  0  0  0  0
   -0.2022   -1.5600    2.3578 O   0  0  0  0  0  0  0  0  0  0  0  0
    0.0020   -0.0037    0.0010 H   0  0  0  0  0  0  0  0  0  0  0  0
    0.5055    1.3745    1.0005 H   0  0  0  0  0  0  0  0  0  0  0  0
   -1.3598    1.0223    2.5180 H   0  0  0  0  0  0  0  0  0  0  0  0
   -2.1138    0.7369    0.9365 H   0  0  0  0  0  0  0  0  0  0  0  0
    1.1154   -0.0695    2.8471 H   0  0  0  0  0  0  0  0  0  0  0  0
   -1.8426   -1.6601    1.1348 H   0  0  0  0  0  0  0  0  0  0  0  0
    2.3739   -2.0306    1.9491 H   0  0  0  0  0  0  0  0  0  0  0  0
    1.6259   -1.7779    0.3602 H   0  0  0  0  0  0  0  0  0  0  0  0
    2.7255   -0.5558    1.0278 H   0  0  0  0  0  0  0  0  0  0  0  0
   -2.0339   -0.9428    4.0923 H   0  0  0  0  0  0  0  0  0  0  0  0
   -3.4071   -0.7613    2.9835 H   0  0  0  0  0  0  0  0  0  0  0  0
   -2.6997   -2.3639    3.2648 H   0  0  0  0  0  0  0  0  0  0  0  0
  1  2  1  0  0  0  0
  1  3  1  0  0  0  0
  2  4  1  0  0  0  0
  3  5  1  0  0  0  0
  3  7  1  0  0  0  0
  4  6  1  0  0  0  0
  4  7  1  0  0  0  0
  1  8  1  0  0  0  0
  1  9  1  0  0  0  0
  2 10  1  0  0  0  0
  2 11  1  0  0  0  0
  3 12  1  0  0  0  0
  4 13  1  0  0  0  0
  5 14  1  0  0  0  0
  5 15  1  0  0  0  0
  5 16  1  0  0  0  0
  6 17  1  0  0  0  0
  6 18  1  0  0  0  0
  6 19  1  0  0  0  0
M  END
$$$$
