CUP08005_AM1BCC_v1_0
  -OEChem-10241310023D

 17 16  0     0  0  0  0  0  0999 V2000
    0.9772   -0.3456   -0.2659 C   0  0  0  0  0  0  0  0  0  0  0  0
    1.1726    1.1785   -2.2501 C   0  0  0  0  0  0  0  0  0  0  0  0
    1.9918    1.9606   -0.0023 C   0  0  0  0  0  0  0  0  0  0  0  0
    1.8134    0.7499   -0.9315 C   0  0  0  0  0  0  0  0  0  0  0  0
    2.9004    2.6006    2.0841 N   0  3  0  0  0  0  0  0  0  0  0  0
    3.5074    2.2438    3.0920 O   0  5  0  0  0  0  0  0  0  0  0  0
    2.4599    3.7098    1.7782 O   0  0  0  0  0  0  0  0  0  0  0  0
    2.7017    1.5455    1.1623 O   0  0  0  0  0  0  0  0  0  0  0  0
   -0.0213    0.0213   -0.0047 H   0  0  0  0  0  0  0  0  0  0  0  0
    1.4556   -0.7080    0.6498 H   0  0  0  0  0  0  0  0  0  0  0  0
    0.8573   -1.2028   -0.9370 H   0  0  0  0  0  0  0  0  0  0  0  0
    0.1759    1.6029   -2.0886 H   0  0  0  0  0  0  0  0  0  0  0  0
    1.0717    0.3252   -2.9291 H   0  0  0  0  0  0  0  0  0  0  0  0
    1.7855    1.9340   -2.7528 H   0  0  0  0  0  0  0  0  0  0  0  0
    2.5669    2.7334   -0.5280 H   0  0  0  0  0  0  0  0  0  0  0  0
    1.0073    2.3598    0.2738 H   0  0  0  0  0  0  0  0  0  0  0  0
    2.8028    0.3246   -1.1434 H   0  0  0  0  0  0  0  0  0  0  0  0
  1  4  1  0  0  0  0
  2  4  1  0  0  0  0
  3  4  1  0  0  0  0
  3  8  1  0  0  0  0
  5  6  1  0  0  0  0
  5  7  2  0  0  0  0
  5  8  1  0  0  0  0
  1  9  1  0  0  0  0
  1 10  1  0  0  0  0
  1 11  1  0  0  0  0
  2 12  1  0  0  0  0
  2 13  1  0  0  0  0
  2 14  1  0  0  0  0
  3 15  1  0  0  0  0
  3 16  1  0  0  0  0
  4 17  1  0  0  0  0
M  CHG  2   5   1   6  -1
M  END
$$$$
