12_ethanediol
  -OEChem-10241310033D

 10  9  0     0  0  0  0  0  0999 V2000
   -0.8936    0.4506    0.4416 C   0  0  0  0  0  0  0  0  0  0  0  0
   -2.1461   -0.1936   -0.1209 C   0  0  0  0  0  0  0  0  0  0  0  0
   -0.8526    0.2362    1.8472 O   0  0  0  0  0  0  0  0  0  0  0  0
   -2.1048   -1.5918    0.1373 O   0  0  0  0  0  0  0  0  0  0  0  0
   -0.8901    1.5299    0.2612 H   0  0  0  0  0  0  0  0  0  0  0  0
    0.0000    0.0000    0.0000 H   0  0  0  0  0  0  0  0  0  0  0  0
   -2.2121   -0.0487   -1.2038 H   0  0  0  0  0  0  0  0  0  0  0  0
   -3.0378    0.2178    0.3611 H   0  0  0  0  0  0  0  0  0  0  0  0
   -0.9002    1.1112    2.2643 H   0  0  0  0  0  0  0  0  0  0  0  0
   -2.6044   -1.7391    0.9563 H   0  0  0  0  0  0  0  0  0  0  0  0
  1  2  1  0  0  0  0
  1  3  1  0  0  0  0
  2  4  1  0  0  0  0
  1  5  1  0  0  0  0
  1  6  1  0  0  0  0
  2  7  1  0  0  0  0
  2  8  1  0  0  0  0
  3  9  1  0  0  0  0
  4 10  1  0  0  0  0
M  END
$$$$
