phenyl_methyl_sulfide
  -OEChem-10241310023D

 16 16  0     0  0  0  0  0  0999 V2000
    1.8846   -1.0376   -0.1090 C   0  0  0  0  0  0  0  0  0  0  0  0
    0.8176   -0.4410    0.5626 C   0  0  0  0  0  0  0  0  0  0  0  0
    2.9348   -1.6038    0.6137 C   0  0  0  0  0  0  0  0  0  0  0  0
    0.8008   -0.4105    1.9570 C   0  0  0  0  0  0  0  0  0  0  0  0
    2.9180   -1.5734    2.0082 C   0  0  0  0  0  0  0  0  0  0  0  0
    1.8509   -0.9767    2.6799 C   0  0  0  0  0  0  0  0  0  0  0  0
    1.7877    0.8469    4.7910 C   0  0  0  0  0  0  0  0  0  0  0  0
    1.8293   -0.9375    4.4617 S   0  0  0  0  0  0  0  0  0  0  0  0
    1.8979   -1.0618   -1.1946 H   0  0  0  0  0  0  0  0  0  0  0  0
    0.0005    0.0004   -0.0006 H   0  0  0  0  0  0  0  0  0  0  0  0
    3.7653   -2.0685    0.0904 H   0  0  0  0  0  0  0  0  0  0  0  0
   -0.0393    0.0592    2.4630 H   0  0  0  0  0  0  0  0  0  0  0  0
    3.7455   -2.0197    2.5544 H   0  0  0  0  0  0  0  0  0  0  0  0
    0.8621    1.2758    4.3992 H   0  0  0  0  0  0  0  0  0  0  0  0
    2.6385    1.3334    4.3076 H   0  0  0  0  0  0  0  0  0  0  0  0
    1.8373    1.0269    5.8676 H   0  0  0  0  0  0  0  0  0  0  0  0
  1  2  1  0  0  0  0
  1  3  2  0  0  0  0
  2  4  2  0  0  0  0
  3  5  1  0  0  0  0
  4  6  1  0  0  0  0
  5  6  2  0  0  0  0
  6  8  1  0  0  0  0
  7  8  1  0  0  0  0
  1  9  1  0  0  0  0
  2 10  1  0  0  0  0
  3 11  1  0  0  0  0
  4 12  1  0  0  0  0
  5 13  1  0  0  0  0
  7 14  1  0  0  0  0
  7 15  1  0  0  0  0
  7 16  1  0  0  0  0
M  END
$$$$
