26_dimethylnaphthalene
  -OEChem-10241310033D

 24 25  0     0  0  0  0  0  0999 V2000
    1.6793   -1.3224   -0.2668 C   0  0  0  0  0  0  0  0  0  0  0  0
    1.7133   -5.0126    0.1346 C   0  0  0  0  0  0  0  0  0  0  0  0
    0.3478   -1.0286    0.0286 C   0  0  0  0  0  0  0  0  0  0  0  0
    3.0446   -5.3066   -0.1614 C   0  0  0  0  0  0  0  0  0  0  0  0
    3.4816   -2.9613   -0.5293 C   0  0  0  0  0  0  0  0  0  0  0  0
   -0.0893   -3.3741    0.3973 C   0  0  0  0  0  0  0  0  0  0  0  0
    2.1450   -2.6470   -0.2343 C   0  0  0  0  0  0  0  0  0  0  0  0
    1.2475   -3.6881    0.1025 C   0  0  0  0  0  0  0  0  0  0  0  0
   -0.5346   -2.0524    0.3602 C   0  0  0  0  0  0  0  0  0  0  0  0
    3.9272   -4.2829   -0.4929 C   0  0  0  0  0  0  0  0  0  0  0  0
   -1.9581   -1.7367    0.6754 C   0  0  0  0  0  0  0  0  0  0  0  0
    5.3506   -4.5984   -0.8081 C   0  0  0  0  0  0  0  0  0  0  0  0
    2.3515   -0.5061   -0.5232 H   0  0  0  0  0  0  0  0  0  0  0  0
    1.0410   -5.8288    0.3908 H   0  0  0  0  0  0  0  0  0  0  0  0
    0.0091    0.0037   -0.0028 H   0  0  0  0  0  0  0  0  0  0  0  0
    3.3831   -6.3390   -0.1312 H   0  0  0  0  0  0  0  0  0  0  0  0
    4.1825   -2.1699   -0.7899 H   0  0  0  0  0  0  0  0  0  0  0  0
   -0.7903   -4.1657    0.6570 H   0  0  0  0  0  0  0  0  0  0  0  0
   -2.2363   -2.1594    1.6485 H   0  0  0  0  0  0  0  0  0  0  0  0
   -2.1283   -0.6528    0.7051 H   0  0  0  0  0  0  0  0  0  0  0  0
   -2.6345   -2.1438   -0.0874 H   0  0  0  0  0  0  0  0  0  0  0  0
    5.9818   -4.4368    0.0742 H   0  0  0  0  0  0  0  0  0  0  0  0
    5.4652   -5.6410   -1.1318 H   0  0  0  0  0  0  0  0  0  0  0  0
    5.7265   -3.9689   -1.6252 H   0  0  0  0  0  0  0  0  0  0  0  0
  1  3  1  0  0  0  0
  1  7  2  0  0  0  0
  2  4  2  0  0  0  0
  2  8  1  0  0  0  0
  3  9  2  0  0  0  0
  4 10  1  0  0  0  0
  5  7  1  0  0  0  0
  5 10  2  0  0  0  0
  6  8  2  0  0  0  0
  6  9  1  0  0  0  0
  7  8  1  0  0  0  0
  9 11  1  0  0  0  0
 10 12  1  0  0  0  0
  1 13  1  0  0  0  0
  2 14  1  0  0  0  0
  3 15  1  0  0  0  0
  4 16  1  0  0  0  0
  5 17  1  0  0  0  0
  6 18  1  0  0  0  0
 11 19  1  0  0  0  0
 11 20  1  0  0  0  0
 11 21  1  0  0  0  0
 12 22  1  0  0  0  0
 12 23  1  0  0  0  0
 12 24  1  0  0  0  0
M  END
$$$$
