pentachloronitrobenzene
  -OEChem-10241310023D

 14 14  0     0  0  0  0  0  0999 V2000
    1.8850   -1.0360   -0.1120 C   0  0  0  0  0  0  0  0  0  0  0  0
    0.8070   -0.4630    0.5610 C   0  0  0  0  0  0  0  0  0  0  0  0
    2.9210   -1.6310    0.6080 C   0  0  0  0  0  0  0  0  0  0  0  0
    0.7640   -0.4840    1.9550 C   0  0  0  0  0  0  0  0  0  0  0  0
    2.8780   -1.6520    2.0020 C   0  0  0  0  0  0  0  0  0  0  0  0
    1.8000   -1.0790    2.6760 C   0  0  0  0  0  0  0  0  0  0  0  0
    1.9290   -1.0150   -1.5410 N   0  0  0  0  0  0  0  0  0  0  0  0
    1.4170   -1.9670   -2.1700 O   0  0  0  0  0  0  0  0  0  0  0  0
    2.4770   -0.0460   -2.1090 O   0  0  0  0  0  0  0  0  0  0  0  0
   -0.4770    0.2750   -0.3570 Cl  0  0  0  0  0  0  0  0  0  0  0  0
    4.2590   -2.3440   -0.2510 Cl  0  0  0  0  0  0  0  0  0  0  0  0
   -0.5870    0.2320    2.7920 Cl  0  0  0  0  0  0  0  0  0  0  0  0
    4.1740   -2.3970    2.8990 Cl  0  0  0  0  0  0  0  0  0  0  0  0
    1.7470   -1.1030    4.4180 Cl  0  0  0  0  0  0  0  0  0  0  0  0
  1  2  2  0  0  0  0
  1  3  1  0  0  0  0
  1  7  1  0  0  0  0
  2  4  1  0  0  0  0
  2 10  1  0  0  0  0
  3  5  2  0  0  0  0
  3 11  1  0  0  0  0
  4  6  2  0  0  0  0
  4 12  1  0  0  0  0
  5  6  1  0  0  0  0
  5 13  1  0  0  0  0
  6 14  1  0  0  0  0
  7  8  2  0  0  0  0
  7  9  2  0  0  0  0
M  END
$$$$
