n_propyl_butyrate
  -OEChem-10241310033D

 23 22  0     0  0  0  0  0  0999 V2000
    2.6749   -0.7723    3.1243 C   0  0  0  0  0  0  0  0  0  0  0  0
   -0.3781   -0.6942    0.7529 C   0  0  0  0  0  0  0  0  0  0  0  0
    7.2661   -1.2978    4.6838 C   0  0  0  0  0  0  0  0  0  0  0  0
    1.8852   -0.8881    1.8405 C   0  0  0  0  0  0  0  0  0  0  0  0
    0.4001   -0.6068    2.0556 C   0  0  0  0  0  0  0  0  0  0  0  0
    6.2755   -1.3342    3.5341 C   0  0  0  0  0  0  0  0  0  0  0  0
    4.8658   -0.9912    3.9907 C   0  0  0  0  0  0  0  0  0  0  0  0
    2.2091   -0.4717    4.2148 O   0  0  0  0  0  0  0  0  0  0  0  0
    3.9853   -1.0584    2.8643 O   0  0  0  0  0  0  0  0  0  0  0  0
   -1.4384   -0.4883    0.9301 H   0  0  0  0  0  0  0  0  0  0  0  0
   -0.0074    0.0344    0.0247 H   0  0  0  0  0  0  0  0  0  0  0  0
   -0.2951   -1.6932    0.3128 H   0  0  0  0  0  0  0  0  0  0  0  0
    6.9914   -2.0182    5.4610 H   0  0  0  0  0  0  0  0  0  0  0  0
    8.2702   -1.5489    4.3280 H   0  0  0  0  0  0  0  0  0  0  0  0
    7.3054   -0.3020    5.1364 H   0  0  0  0  0  0  0  0  0  0  0  0
    2.2964   -0.1716    1.1205 H   0  0  0  0  0  0  0  0  0  0  0  0
    2.0160   -1.9032    1.4493 H   0  0  0  0  0  0  0  0  0  0  0  0
   -0.0159   -1.3233    2.7741 H   0  0  0  0  0  0  0  0  0  0  0  0
    0.2672    0.3908    2.4908 H   0  0  0  0  0  0  0  0  0  0  0  0
    6.2803   -2.3277    3.0699 H   0  0  0  0  0  0  0  0  0  0  0  0
    6.5888   -0.6343    2.7502 H   0  0  0  0  0  0  0  0  0  0  0  0
    4.5169   -1.7002    4.7484 H   0  0  0  0  0  0  0  0  0  0  0  0
    4.8247    0.0212    4.4051 H   0  0  0  0  0  0  0  0  0  0  0  0
  1  4  1  0  0  0  0
  1  8  2  0  0  0  0
  1  9  1  0  0  0  0
  2  5  1  0  0  0  0
  3  6  1  0  0  0  0
  4  5  1  0  0  0  0
  6  7  1  0  0  0  0
  7  9  1  0  0  0  0
  2 10  1  0  0  0  0
  2 11  1  0  0  0  0
  2 12  1  0  0  0  0
  3 13  1  0  0  0  0
  3 14  1  0  0  0  0
  3 15  1  0  0  0  0
  4 16  1  0  0  0  0
  4 17  1  0  0  0  0
  5 18  1  0  0  0  0
  5 19  1  0  0  0  0
  6 20  1  0  0  0  0
  6 21  1  0  0  0  0
  7 22  1  0  0  0  0
  7 23  1  0  0  0  0
M  END
$$$$
