methoxyflurane
  -OEChem-10241310033D

 12 11  0     0  0  0  0  0  0999 V2000
   -0.1039   -0.6279    0.8892 C   0  0  0  0  0  0  0  0  0  0  0  0
    2.2982   -1.0595    3.6818 C   0  0  0  0  0  0  0  0  0  0  0  0
    1.0259   -1.2531    2.8738 C   0  0  0  0  0  0  0  0  0  0  0  0
    1.0674   -0.4786    1.6791 O   0  0  0  0  0  0  0  0  0  0  0  0
   -0.0653   -0.9058    3.5984 F   0  0  0  0  0  0  0  0  0  0  0  0
    0.8923   -2.5596    2.5312 F   0  0  0  0  0  0  0  0  0  0  0  0
    2.5218    0.6541    4.1193 Cl  0  0  0  0  0  0  0  0  0  0  0  0
    2.2549   -2.0459    5.1645 Cl  0  0  0  0  0  0  0  0  0  0  0  0
    0.0060   -1.4951    0.2335 H   0  0  0  0  0  0  0  0  0  0  0  0
   -0.2605    0.2751    0.2938 H   0  0  0  0  0  0  0  0  0  0  0  0
   -0.9610   -0.7797    1.5496 H   0  0  0  0  0  0  0  0  0  0  0  0
    3.1747   -1.3677    3.1047 H   0  0  0  0  0  0  0  0  0  0  0  0
  1  4  1  0  0  0  0
  2  3  1  0  0  0  0
  2  7  1  0  0  0  0
  2  8  1  0  0  0  0
  3  4  1  0  0  0  0
  3  5  1  0  0  0  0
  3  6  1  0  0  0  0
  1  9  1  0  0  0  0
  1 10  1  0  0  0  0
  1 11  1  0  0  0  0
  2 12  1  0  0  0  0
M  END
$$$$
