dimethylamine
  -OEChem-10241310033D

 10  9  0     0  0  0  0  0  0999 V2000
    1.0277    0.1348    0.3510 C   0  0  0  0  0  0  0  0  0  0  0  0
    2.3857    0.4585    2.3034 C   0  0  0  0  0  0  0  0  0  0  0  0
    1.0302    0.2824    1.8002 N   0  0  0  0  0  0  0  0  0  0  0  0
    2.0053    0.3961   -0.0640 H   0  0  0  0  0  0  0  0  0  0  0  0
    0.2718    0.7879   -0.0938 H   0  0  0  0  0  0  0  0  0  0  0  0
    0.7949   -0.8980    0.0770 H   0  0  0  0  0  0  0  0  0  0  0  0
    2.3700    0.8876    3.3093 H   0  0  0  0  0  0  0  0  0  0  0  0
    2.9488    1.1265    1.6458 H   0  0  0  0  0  0  0  0  0  0  0  0
    2.9027   -0.5044    2.3407 H   0  0  0  0  0  0  0  0  0  0  0  0
    0.4693    1.0948    2.0556 H   0  0  0  0  0  0  0  0  0  0  0  0
  1  3  1  0  0  0  0
  2  3  1  0  0  0  0
  1  4  1  0  0  0  0
  1  5  1  0  0  0  0
  1  6  1  0  0  0  0
  2  7  1  0  0  0  0
  2  8  1  0  0  0  0
  2  9  1  0  0  0  0
  3 10  1  0  0  0  0
M  END
$$$$
