CUP08057_AM1BCC_v1_0
  -OEChem-10241310043D

 34 33  0     0  0  0  0  0  0999 V2000
   -0.8490   -1.5246    2.4482 C   0  0  0  0  0  0  0  0  0  0  0  0
    0.6523   -0.0081   -1.7773 C   0  0  0  0  0  0  0  0  0  0  0  0
   -3.6636    2.0713    2.8721 C   0  0  0  0  0  0  0  0  0  0  0  0
    0.7611   -6.2460    4.0639 C   0  0  0  0  0  0  0  0  0  0  0  0
    0.4717    0.0087   -0.2683 C   0  0  0  0  0  0  0  0  0  0  0  0
   -3.1413    0.7843    2.2550 C   0  0  0  0  0  0  0  0  0  0  0  0
    0.5905   -5.3656    2.8342 C   0  0  0  0  0  0  0  0  0  0  0  0
   -0.9268   -0.4628    0.1321 C   0  0  0  0  0  0  0  0  0  0  0  0
   -1.6141    0.7783    2.1837 C   0  0  0  0  0  0  0  0  0  0  0  0
    0.0051   -4.0061    3.2086 C   0  0  0  0  0  0  0  0  0  0  0  0
   -1.1064   -0.4575    1.5890 N   0  0  0  0  0  0  0  0  0  0  0  0
   -1.0596   -1.4784    3.6556 O   0  0  0  0  0  0  0  0  0  0  0  0
   -0.1832   -2.9820    1.7200 S   0  0  0  0  0  0  0  0  0  0  0  0
    0.5218   -1.0190   -2.1764 H   0  0  0  0  0  0  0  0  0  0  0  0
   -0.0719    0.6513   -2.2662 H   0  0  0  0  0  0  0  0  0  0  0  0
    1.6572    0.3346   -2.0430 H   0  0  0  0  0  0  0  0  0  0  0  0
   -3.2856    2.1992    3.8915 H   0  0  0  0  0  0  0  0  0  0  0  0
   -3.3596    2.9409    2.2808 H   0  0  0  0  0  0  0  0  0  0  0  0
   -4.7571    2.0549    2.9149 H   0  0  0  0  0  0  0  0  0  0  0  0
    1.4366   -5.7809    4.7889 H   0  0  0  0  0  0  0  0  0  0  0  0
   -0.2010   -6.4245    4.5549 H   0  0  0  0  0  0  0  0  0  0  0  0
    1.1827   -7.2153    3.7803 H   0  0  0  0  0  0  0  0  0  0  0  0
    0.6447    1.0253    0.1038 H   0  0  0  0  0  0  0  0  0  0  0  0
    1.2359   -0.6263    0.1936 H   0  0  0  0  0  0  0  0  0  0  0  0
   -3.5648    0.6674    1.2506 H   0  0  0  0  0  0  0  0  0  0  0  0
   -3.4933   -0.0695    2.8460 H   0  0  0  0  0  0  0  0  0  0  0  0
   -0.0645   -5.8809    2.1213 H   0  0  0  0  0  0  0  0  0  0  0  0
    1.5682   -5.2413    2.3527 H   0  0  0  0  0  0  0  0  0  0  0  0
   -1.6871    0.1931   -0.3092 H   0  0  0  0  0  0  0  0  0  0  0  0
   -1.1222   -1.4617   -0.2691 H   0  0  0  0  0  0  0  0  0  0  0  0
   -1.2495    1.6285    1.5955 H   0  0  0  0  0  0  0  0  0  0  0  0
   -1.1992    0.8920    3.1924 H   0  0  0  0  0  0  0  0  0  0  0  0
   -0.9737   -4.1383    3.6821 H   0  0  0  0  0  0  0  0  0  0  0  0
    0.6676   -3.4958    3.9159 H   0  0  0  0  0  0  0  0  0  0  0  0
  1 11  1  0  0  0  0
  1 12  2  0  0  0  0
  1 13  1  0  0  0  0
  2  5  1  0  0  0  0
  3  6  1  0  0  0  0
  4  7  1  0  0  0  0
  5  8  1  0  0  0  0
  6  9  1  0  0  0  0
  7 10  1  0  0  0  0
  8 11  1  0  0  0  0
  9 11  1  0  0  0  0
 10 13  1  0  0  0  0
  2 14  1  0  0  0  0
  2 15  1  0  0  0  0
  2 16  1  0  0  0  0
  3 17  1  0  0  0  0
  3 18  1  0  0  0  0
  3 19  1  0  0  0  0
  4 20  1  0  0  0  0
  4 21  1  0  0  0  0
  4 22  1  0  0  0  0
  5 23  1  0  0  0  0
  5 24  1  0  0  0  0
  6 25  1  0  0  0  0
  6 26  1  0  0  0  0
  7 27  1  0  0  0  0
  7 28  1  0  0  0  0
  8 29  1  0  0  0  0
  8 30  1  0  0  0  0
  9 31  1  0  0  0  0
  9 32  1  0  0  0  0
 10 33  1  0  0  0  0
 10 34  1  0  0  0  0
M  END
$$$$
