s61
  -OEChem-09251417133D

 14 13  0     0  0  0  0  0  0999 V2000
   -1.7780   -0.4710   -0.0910 H   0  0  0  0  0  0  0  0  0  0  0  0
   -1.9780    0.0030   -1.0330 C   0  0  0  0  0  0  0  0  0  0  0  0
   -1.0410    0.3740   -1.4610 H   0  0  0  0  0  0  0  0  0  0  0  0
   -2.5990    0.8750   -0.8330 H   0  0  0  0  0  0  0  0  0  0  0  0
   -2.6860   -0.9260   -1.9960 C   0  0  0  0  0  0  0  0  0  0  0  0
   -2.0270   -1.7840   -2.2110 H   0  0  0  0  0  0  0  0  0  0  0  0
   -2.8610   -0.4360   -2.9490 H   0  0  0  0  0  0  0  0  0  0  0  0
   -4.0040   -1.4420   -1.4240 C   0  0  0  0  0  0  0  0  0  0  0  0
   -3.8030   -1.9500   -0.4810 H   0  0  0  0  0  0  0  0  0  0  0  0
   -4.7040   -2.3870   -2.3750 C   0  0  0  0  0  0  0  0  0  0  0  0
   -4.0860   -3.2500   -2.5790 H   0  0  0  0  0  0  0  0  0  0  0  0
   -5.6570   -2.7670   -1.9630 H   0  0  0  0  0  0  0  0  0  0  0  0
   -4.9210   -1.9050   -3.3530 H   0  0  0  0  0  0  0  0  0  0  0  0
   -4.6720   -0.5830   -1.2210 H   0  0  0  0  0  0  0  0  0  0  0  0
  1  2  1  0  0  0  0
  2  3  1  0  0  0  0
  2  4  1  0  0  0  0
  2  5  1  0  0  0  0
  5  6  1  0  0  0  0
  5  7  1  0  0  0  0
  5  8  1  0  0  0  0
  8  9  1  0  0  0  0
  8 10  1  0  0  0  0
  8 14  1  0  0  0  0
 10 11  1  0  0  0  0
 10 12  1  0  0  0  0
 10 13  1  0  0  0  0
M  END
$$$$
