halothane
  -OEChem-10241310033D

  8  7  0     1  0  0  0  0  0999 V2000
    0.0000   -0.0000    0.0000 C   0  0  2  0  0  0  0  0  0  0  0  0
   -0.3426   -0.5418   -1.3672 C   0  0  0  0  0  0  0  0  0  0  0  0
   -0.0822   -1.8677   -1.4374 F   0  0  0  0  0  0  0  0  0  0  0  0
   -1.6449   -0.3642   -1.6762 F   0  0  0  0  0  0  0  0  0  0  0  0
    0.3956    0.0568   -2.3291 F   0  0  0  0  0  0  0  0  0  0  0  0
   -0.9657   -0.7876    1.2616 Cl  0  0  0  0  0  0  0  0  0  0  0  0
   -0.3208    1.9193    0.0594 Br  0  0  0  0  0  0  0  0  0  0  0  0
    1.0583   -0.1464    0.2314 H   0  0  0  0  0  0  0  0  0  0  0  0
  1  2  1  0  0  0  0
  1  6  1  0  0  0  0
  1  7  1  0  0  0  0
  2  3  1  0  0  0  0
  2  4  1  0  0  0  0
  2  5  1  0  0  0  0
  1  8  1  0  0  0  0
M  END
$$$$
