1_bromoheptane
  -OEChem-10241310023D

 23 22  0     0  0  0  0  0  0999 V2000
    0.2501   -0.5584    0.8998 C   0  0  0  0  0  0  0  0  0  0  0  0
    1.7279   -0.3976    1.2185 C   0  0  0  0  0  0  0  0  0  0  0  0
    2.6062   -0.9723    0.1073 C   0  0  0  0  0  0  0  0  0  0  0  0
    4.0924   -0.8387    0.4475 C   0  0  0  0  0  0  0  0  0  0  0  0
    4.9703   -1.3796   -0.6833 C   0  0  0  0  0  0  0  0  0  0  0  0
    6.4692   -1.2815   -0.3869 C   0  0  0  0  0  0  0  0  0  0  0  0
    7.3340   -1.8513   -1.4992 C   0  0  0  0  0  0  0  0  0  0  0  0
    9.2123   -1.7427   -0.9902 Br  0  0  0  0  0  0  0  0  0  0  0  0
   -0.3593   -0.1443    1.7091 H   0  0  0  0  0  0  0  0  0  0  0  0
   -0.0112   -0.0336   -0.0247 H   0  0  0  0  0  0  0  0  0  0  0  0
   -0.0134   -1.6143    0.7821 H   0  0  0  0  0  0  0  0  0  0  0  0
    1.9484   -0.9023    2.1664 H   0  0  0  0  0  0  0  0  0  0  0  0
    1.9521    0.6665    1.3574 H   0  0  0  0  0  0  0  0  0  0  0  0
    2.3958   -0.4498   -0.8338 H   0  0  0  0  0  0  0  0  0  0  0  0
    2.3585   -2.0296   -0.0474 H   0  0  0  0  0  0  0  0  0  0  0  0
    4.2976   -1.3833    1.3758 H   0  0  0  0  0  0  0  0  0  0  0  0
    4.3339    0.2156    0.6281 H   0  0  0  0  0  0  0  0  0  0  0  0
    4.7648   -0.8120   -1.5994 H   0  0  0  0  0  0  0  0  0  0  0  0
    4.7046   -2.4231   -0.8923 H   0  0  0  0  0  0  0  0  0  0  0  0
    6.7177   -0.2232   -0.2343 H   0  0  0  0  0  0  0  0  0  0  0  0
    6.6897   -1.7892    0.5606 H   0  0  0  0  0  0  0  0  0  0  0  0
    7.1333   -2.9090   -1.6857 H   0  0  0  0  0  0  0  0  0  0  0  0
    7.2309   -1.2865   -2.4296 H   0  0  0  0  0  0  0  0  0  0  0  0
  1  2  1  0  0  0  0
  2  3  1  0  0  0  0
  3  4  1  0  0  0  0
  4  5  1  0  0  0  0
  5  6  1  0  0  0  0
  6  7  1  0  0  0  0
  7  8  1  0  0  0  0
  1  9  1  0  0  0  0
  1 10  1  0  0  0  0
  1 11  1  0  0  0  0
  2 12  1  0  0  0  0
  2 13  1  0  0  0  0
  3 14  1  0  0  0  0
  3 15  1  0  0  0  0
  4 16  1  0  0  0  0
  4 17  1  0  0  0  0
  5 18  1  0  0  0  0
  5 19  1  0  0  0  0
  6 20  1  0  0  0  0
  6 21  1  0  0  0  0
  7 22  1  0  0  0  0
  7 23  1  0  0  0  0
M  END
$$$$
