anthracene
  -OEChem-10241310033D

 24 26  0     0  0  0  0  0  0999 V2000
    1.1790    1.7785   -0.2719 C   0  0  0  0  0  0  0  0  0  0  0  0
   -0.0144    1.0672   -0.2005 C   0  0  0  0  0  0  0  0  0  0  0  0
   -2.5631    7.9206   -1.6201 C   0  0  0  0  0  0  0  0  0  0  0  0
   -3.7565    7.2092   -1.5486 C   0  0  0  0  0  0  0  0  0  0  0  0
    1.1594    3.1494   -0.5302 C   0  0  0  0  0  0  0  0  0  0  0  0
   -1.2305    1.7248   -0.3872 C   0  0  0  0  0  0  0  0  0  0  0  0
   -1.3470    7.2631   -1.4331 C   0  0  0  0  0  0  0  0  0  0  0  0
   -3.7368    5.8385   -1.2900 C   0  0  0  0  0  0  0  0  0  0  0  0
   -0.0931    5.2067   -0.9817 C   0  0  0  0  0  0  0  0  0  0  0  0
   -2.4843    3.7813   -0.8385 C   0  0  0  0  0  0  0  0  0  0  0  0
   -0.0565    3.8268   -0.7206 C   0  0  0  0  0  0  0  0  0  0  0  0
   -1.2679    3.1047   -0.6481 C   0  0  0  0  0  0  0  0  0  0  0  0
   -1.3095    5.8834   -1.1720 C   0  0  0  0  0  0  0  0  0  0  0  0
   -2.5209    5.1612   -1.0994 C   0  0  0  0  0  0  0  0  0  0  0  0
    2.1262    1.2670   -0.1270 H   0  0  0  0  0  0  0  0  0  0  0  0
    0.0003   -0.0002    0.0003 H   0  0  0  0  0  0  0  0  0  0  0  0
   -2.5776    8.9879   -1.8210 H   0  0  0  0  0  0  0  0  0  0  0  0
   -4.7037    7.7203   -1.6944 H   0  0  0  0  0  0  0  0  0  0  0  0
    2.1046    3.6858   -0.5820 H   0  0  0  0  0  0  0  0  0  0  0  0
   -2.1514    1.1485   -0.3273 H   0  0  0  0  0  0  0  0  0  0  0  0
   -0.4258    7.8393   -1.4928 H   0  0  0  0  0  0  0  0  0  0  0  0
   -4.6821    5.3022   -1.2388 H   0  0  0  0  0  0  0  0  0  0  0  0
    0.8423    5.7640   -1.0381 H   0  0  0  0  0  0  0  0  0  0  0  0
   -3.4194    3.2239   -0.7825 H   0  0  0  0  0  0  0  0  0  0  0  0
  1  2  1  0  0  0  0
  1  5  2  0  0  0  0
  2  6  2  0  0  0  0
  3  4  2  0  0  0  0
  3  7  1  0  0  0  0
  4  8  1  0  0  0  0
  5 11  1  0  0  0  0
  6 12  1  0  0  0  0
  7 13  2  0  0  0  0
  8 14  2  0  0  0  0
  9 11  2  0  0  0  0
  9 13  1  0  0  0  0
 10 12  2  0  0  0  0
 10 14  1  0  0  0  0
 11 12  1  0  0  0  0
 13 14  1  0  0  0  0
  1 15  1  0  0  0  0
  2 16  1  0  0  0  0
  3 17  1  0  0  0  0
  4 18  1  0  0  0  0
  5 19  1  0  0  0  0
  6 20  1  0  0  0  0
  7 21  1  0  0  0  0
  8 22  1  0  0  0  0
  9 23  1  0  0  0  0
 10 24  1  0  0  0  0
M  END
$$$$
