CUP08023_AM1BCC_v1_0
  -OEChem-10241310023D

 40 41  0     1  0  0  0  0  0999 V2000
    5.9797   -9.8869   -4.1427 C   0  0  0  0  0  0  0  0  0  0  0  0
    6.7851   -9.7590   -2.9916 C   0  0  0  0  0  0  0  0  0  0  0  0
    5.3817   -8.7663   -4.7281 C   0  0  0  0  0  0  0  0  0  0  0  0
    7.0063   -8.5083   -2.4062 C   0  0  0  0  0  0  0  0  0  0  0  0
    5.6128   -7.5439   -4.1286 C   0  0  0  0  0  0  0  0  0  0  0  0
    6.4017   -7.4183   -3.0009 C   0  0  0  0  0  0  0  0  0  0  0  0
    5.1467   -6.2078   -4.4892 C   0  0  0  0  0  0  0  0  0  0  0  0
    6.4428   -6.0015   -2.6473 C   0  0  0  0  0  0  0  0  0  0  0  0
   -0.4152   -2.1294   -3.7797 C   0  0  0  0  0  0  0  0  0  0  0  0
    2.2635   -5.0226    1.3353 C   0  0  0  0  0  0  0  0  0  0  0  0
    0.2452   -3.1347   -2.8586 C   0  0  0  0  0  0  0  0  0  0  0  0
    2.4812   -5.4269   -0.1082 C   0  0  0  0  0  0  0  0  0  0  0  0
    6.7494   -3.1125   -3.7084 C   0  0  0  0  0  0  0  0  0  0  0  0
    5.4399   -3.9108   -3.6060 C   0  0  1  0  0  0  0  0  0  0  0  0
    5.6454   -5.3483   -3.5471 N   0  0  0  0  0  0  0  0  0  0  0  0
    4.4577   -5.9620   -5.4608 O   0  0  0  0  0  0  0  0  0  0  0  0
    7.1035   -5.5499   -1.7323 O   0  0  0  0  0  0  0  0  0  0  0  0
    1.6534   -3.0078   -2.9850 O   0  0  0  0  0  0  0  0  0  0  0  0
    1.9788   -4.3966   -0.9439 O   0  0  0  0  0  0  0  0  0  0  0  0
    2.6073   -4.2019   -2.4301 P   0  0  0  0  0  0  0  0  0  0  0  0
    2.4872   -5.8077   -3.5311 S   0  0  0  0  0  0  0  0  0  0  0  0
    4.4927   -3.3175   -2.1681 S   0  0  0  0  0  0  0  0  0  0  0  0
    7.6498   -3.5309   -5.1979 Cl  0  0  0  0  0  0  0  0  0  0  0  0
    5.8247  -10.8717   -4.5805 H   0  0  0  0  0  0  0  0  0  0  0  0
    7.2412  -10.6465   -2.5559 H   0  0  0  0  0  0  0  0  0  0  0  0
    4.7625   -8.8498   -5.6152 H   0  0  0  0  0  0  0  0  0  0  0  0
    7.6268   -8.3948   -1.5232 H   0  0  0  0  0  0  0  0  0  0  0  0
   -0.1066   -1.1105   -3.5264 H   0  0  0  0  0  0  0  0  0  0  0  0
   -0.1154   -2.3035   -4.8184 H   0  0  0  0  0  0  0  0  0  0  0  0
   -1.5046   -2.1940   -3.7107 H   0  0  0  0  0  0  0  0  0  0  0  0
    2.7889   -4.0876    1.5564 H   0  0  0  0  0  0  0  0  0  0  0  0
    1.2010   -4.8443    1.5308 H   0  0  0  0  0  0  0  0  0  0  0  0
    2.6230   -5.7986    2.0167 H   0  0  0  0  0  0  0  0  0  0  0  0
   -0.0762   -4.1460   -3.1227 H   0  0  0  0  0  0  0  0  0  0  0  0
   -0.0395   -2.9347   -1.8212 H   0  0  0  0  0  0  0  0  0  0  0  0
    1.9397   -6.3528   -0.3241 H   0  0  0  0  0  0  0  0  0  0  0  0
    3.5474   -5.5898   -0.2922 H   0  0  0  0  0  0  0  0  0  0  0  0
    6.5503   -2.0371   -3.7641 H   0  0  0  0  0  0  0  0  0  0  0  0
    7.4243   -3.2908   -2.8664 H   0  0  0  0  0  0  0  0  0  0  0  0
    4.8416   -3.6828   -4.4943 H   0  0  0  0  0  0  0  0  0  0  0  0
  1  2  1  0  0  0  0
  1  3  2  0  0  0  0
  2  4  2  0  0  0  0
  3  5  1  0  0  0  0
  4  6  1  0  0  0  0
  5  6  2  0  0  0  0
  5  7  1  0  0  0  0
  6  8  1  0  0  0  0
  7 15  1  0  0  0  0
  7 16  2  0  0  0  0
  8 15  1  0  0  0  0
  8 17  2  0  0  0  0
  9 11  1  0  0  0  0
 10 12  1  0  0  0  0
 11 18  1  0  0  0  0
 12 19  1  0  0  0  0
 13 14  1  0  0  0  0
 13 23  1  0  0  0  0
 14 15  1  0  0  0  0
 14 22  1  0  0  0  0
 18 20  1  0  0  0  0
 19 20  1  0  0  0  0
 20 21  2  0  0  0  0
 20 22  1  0  0  0  0
  1 24  1  0  0  0  0
  2 25  1  0  0  0  0
  3 26  1  0  0  0  0
  4 27  1  0  0  0  0
  9 28  1  0  0  0  0
  9 29  1  0  0  0  0
  9 30  1  0  0  0  0
 10 31  1  0  0  0  0
 10 32  1  0  0  0  0
 10 33  1  0  0  0  0
 11 34  1  0  0  0  0
 11 35  1  0  0  0  0
 12 36  1  0  0  0  0
 12 37  1  0  0  0  0
 13 38  1  0  0  0  0
 13 39  1  0  0  0  0
 14 40  1  0  0  0  0
M  END
$$$$
