1,2,3-trichloro-5-(2,5-dichlorophenyl)benzene
  -OEChem-10241310043D

 22 23  0     0  0  0  0  0  0999 V2000
   -2.2954    1.4200   -1.6248 C   0  0  0  0  0  0  0  0  0  0  0  0
   -2.4000    0.0630   -1.3193 C   0  0  0  0  0  0  0  0  0  0  0  0
    1.8851   -1.0363   -0.1124 C   0  0  0  0  0  0  0  0  0  0  0  0
    0.7638   -0.4841    1.9551 C   0  0  0  0  0  0  0  0  0  0  0  0
   -0.1633    1.5107   -0.4921 C   0  0  0  0  0  0  0  0  0  0  0  0
    0.8066   -0.4630    0.5610 C   0  0  0  0  0  0  0  0  0  0  0  0
   -0.2678    0.1538   -0.1865 C   0  0  0  0  0  0  0  0  0  0  0  0
   -1.1770    2.1438   -1.2113 C   0  0  0  0  0  0  0  0  0  0  0  0
   -1.3862   -0.5701   -0.6001 C   0  0  0  0  0  0  0  0  0  0  0  0
    2.9210   -1.6309    0.6081 C   0  0  0  0  0  0  0  0  0  0  0  0
    1.7997   -1.0786    2.6757 C   0  0  0  0  0  0  0  0  0  0  0  0
    2.8783   -1.6520    2.0022 C   0  0  0  0  0  0  0  0  0  0  0  0
   -1.0503    3.8186   -1.5867 Cl  0  0  0  0  0  0  0  0  0  0  0  0
   -1.5687   -2.2542   -0.2503 Cl  0  0  0  0  0  0  0  0  0  0  0  0
    4.2249   -2.3222   -0.2962 Cl  0  0  0  0  0  0  0  0  0  0  0  0
    1.6774   -1.0662    4.4017 Cl  0  0  0  0  0  0  0  0  0  0  0  0
    4.1688   -2.3929    2.9000 Cl  0  0  0  0  0  0  0  0  0  0  0  0
   -3.0939    1.9001   -2.1847 H   0  0  0  0  0  0  0  0  0  0  0  0
   -3.2782   -0.4860   -1.6496 H   0  0  0  0  0  0  0  0  0  0  0  0
    1.9157   -1.0185   -1.2005 H   0  0  0  0  0  0  0  0  0  0  0  0
   -0.0791   -0.0354    2.4780 H   0  0  0  0  0  0  0  0  0  0  0  0
    0.7077    2.0788   -0.1703 H   0  0  0  0  0  0  0  0  0  0  0  0
  1  2  2  0  0  0  0
  1  8  1  0  0  0  0
  2  9  1  0  0  0  0
  3  6  2  0  0  0  0
  3 10  1  0  0  0  0
  4  6  1  0  0  0  0
  4 11  2  0  0  0  0
  5  7  1  0  0  0  0
  5  8  2  0  0  0  0
  6  7  1  0  0  0  0
  7  9  2  0  0  0  0
  8 13  1  0  0  0  0
  9 14  1  0  0  0  0
 10 12  2  0  0  0  0
 10 15  1  0  0  0  0
 11 12  1  0  0  0  0
 11 16  1  0  0  0  0
 12 17  1  0  0  0  0
  1 18  1  0  0  0  0
  2 19  1  0  0  0  0
  3 20  1  0  0  0  0
  4 21  1  0  0  0  0
  5 22  1  0  0  0  0
M  END
$$$$
