isobutylbenzene
  -OEChem-10241310033D

 24 24  0     0  0  0  0  0  0999 V2000
   -2.3834    3.1744   -2.0958 C   0  0  0  0  0  0  0  0  0  0  0  0
   -1.0115    2.9508   -1.9809 C   0  0  0  0  0  0  0  0  0  0  0  0
   -3.2038    3.0685   -0.9726 C   0  0  0  0  0  0  0  0  0  0  0  0
   -0.4598    2.6212   -0.7429 C   0  0  0  0  0  0  0  0  0  0  0  0
   -2.6522    2.7391    0.2655 C   0  0  0  0  0  0  0  0  0  0  0  0
   -1.2871    2.5197    0.3646 C   0  0  0  0  0  0  0  0  0  0  0  0
   -2.0273    0.0017    1.8759 C   0  0  0  0  0  0  0  0  0  0  0  0
    0.3173   -0.0296    1.0009 C   0  0  0  0  0  0  0  0  0  0  0  0
   -0.6900    2.1628    1.7040 C   0  0  0  0  0  0  0  0  0  0  0  0
   -0.6434    0.6475    1.9816 C   0  0  0  0  0  0  0  0  0  0  0  0
   -2.8130    3.4308   -3.0598 H   0  0  0  0  0  0  0  0  0  0  0  0
   -0.3728    3.0330   -2.8556 H   0  0  0  0  0  0  0  0  0  0  0  0
   -4.2720    3.2426   -1.0623 H   0  0  0  0  0  0  0  0  0  0  0  0
    0.6103    2.4486   -0.6630 H   0  0  0  0  0  0  0  0  0  0  0  0
   -3.2990    2.6590    1.1352 H   0  0  0  0  0  0  0  0  0  0  0  0
   -2.4722    0.1745    0.8900 H   0  0  0  0  0  0  0  0  0  0  0  0
   -2.7109    0.3989    2.6327 H   0  0  0  0  0  0  0  0  0  0  0  0
   -1.9626   -1.0806    2.0315 H   0  0  0  0  0  0  0  0  0  0  0  0
    0.3859   -1.1039    1.2022 H   0  0  0  0  0  0  0  0  0  0  0  0
   -0.0146    0.1006   -0.0349 H   0  0  0  0  0  0  0  0  0  0  0  0
    1.3247    0.3905    1.0902 H   0  0  0  0  0  0  0  0  0  0  0  0
    0.3182    2.5893    1.7889 H   0  0  0  0  0  0  0  0  0  0  0  0
   -1.2868    2.6637    2.4783 H   0  0  0  0  0  0  0  0  0  0  0  0
   -0.2628    0.4721    2.9960 H   0  0  0  0  0  0  0  0  0  0  0  0
  1  2  1  0  0  0  0
  1  3  2  0  0  0  0
  2  4  2  0  0  0  0
  3  5  1  0  0  0  0
  4  6  1  0  0  0  0
  5  6  2  0  0  0  0
  6  9  1  0  0  0  0
  7 10  1  0  0  0  0
  8 10  1  0  0  0  0
  9 10  1  0  0  0  0
  1 11  1  0  0  0  0
  2 12  1  0  0  0  0
  3 13  1  0  0  0  0
  4 14  1  0  0  0  0
  5 15  1  0  0  0  0
  7 16  1  0  0  0  0
  7 17  1  0  0  0  0
  7 18  1  0  0  0  0
  8 19  1  0  0  0  0
  8 20  1  0  0  0  0
  8 21  1  0  0  0  0
  9 22  1  0  0  0  0
  9 23  1  0  0  0  0
 10 24  1  0  0  0  0
M  END
$$$$
