CUP08022_AM1BCC_v1_0
  -OEChem-10241310033D

 29 29  0     0  0  0  0  0  0999 V2000
   -2.8488    3.0560   -3.2744 C   0  0  0  0  0  0  0  0  0  0  0  0
   -2.0943    2.0469   -3.8693 C   0  0  0  0  0  0  0  0  0  0  0  0
   -2.9739    3.0847   -1.8866 C   0  0  0  0  0  0  0  0  0  0  0  0
   -1.4909    1.0951   -3.0503 C   0  0  0  0  0  0  0  0  0  0  0  0
   -2.3312    2.0912   -1.1538 C   0  0  0  0  0  0  0  0  0  0  0  0
    2.8945   -0.3863   -0.4675 C   0  0  0  0  0  0  0  0  0  0  0  0
    1.4111   -2.5714   -6.0690 C   0  0  0  0  0  0  0  0  0  0  0  0
    1.7653   -1.2346   -1.0148 C   0  0  0  0  0  0  0  0  0  0  0  0
    0.3005   -2.3593   -5.0606 C   0  0  0  0  0  0  0  0  0  0  0  0
   -1.5930    1.0992   -1.7074 N   0  0  0  0  0  0  0  0  0  0  0  0
   -0.7445    0.1069   -3.6331 O   0  0  0  0  0  0  0  0  0  0  0  0
    0.9369   -0.4159   -1.8211 O   0  0  0  0  0  0  0  0  0  0  0  0
    0.8580   -1.7799   -3.8926 O   0  0  0  0  0  0  0  0  0  0  0  0
   -0.1451   -1.1311   -2.7907 P   0  0  0  0  0  0  0  0  0  0  0  0
   -1.4000   -2.3886   -2.0019 S   0  0  0  0  0  0  0  0  0  0  0  0
   -1.9404    2.0097   -5.5837 Cl  0  0  0  0  0  0  0  0  0  0  0  0
   -3.9068    4.3399   -1.1664 Cl  0  0  0  0  0  0  0  0  0  0  0  0
   -2.3863    2.0004    0.5623 Cl  0  0  0  0  0  0  0  0  0  0  0  0
   -3.3336    3.8122   -3.8862 H   0  0  0  0  0  0  0  0  0  0  0  0
    3.4826    0.0452   -1.2841 H   0  0  0  0  0  0  0  0  0  0  0  0
    2.4994    0.4510    0.1171 H   0  0  0  0  0  0  0  0  0  0  0  0
    3.5565   -0.9804    0.1688 H   0  0  0  0  0  0  0  0  0  0  0  0
    1.8914   -1.6197   -6.3192 H   0  0  0  0  0  0  0  0  0  0  0  0
    2.1889   -3.2217   -5.6550 H   0  0  0  0  0  0  0  0  0  0  0  0
    1.0244   -3.0235   -6.9865 H   0  0  0  0  0  0  0  0  0  0  0  0
    1.1746   -1.6443   -0.1901 H   0  0  0  0  0  0  0  0  0  0  0  0
    2.1715   -2.0609   -1.6065 H   0  0  0  0  0  0  0  0  0  0  0  0
   -0.1578   -3.3192   -4.8050 H   0  0  0  0  0  0  0  0  0  0  0  0
   -0.4650   -1.7004   -5.4823 H   0  0  0  0  0  0  0  0  0  0  0  0
  1  2  1  0  0  0  0
  1  3  2  0  0  0  0
  2  4  2  0  0  0  0
  2 16  1  0  0  0  0
  3  5  1  0  0  0  0
  3 17  1  0  0  0  0
  4 10  1  0  0  0  0
  4 11  1  0  0  0  0
  5 10  2  0  0  0  0
  5 18  1  0  0  0  0
  6  8  1  0  0  0  0
  7  9  1  0  0  0  0
  8 12  1  0  0  0  0
  9 13  1  0  0  0  0
 11 14  1  0  0  0  0
 12 14  1  0  0  0  0
 13 14  1  0  0  0  0
 14 15  2  0  0  0  0
  1 19  1  0  0  0  0
  6 20  1  0  0  0  0
  6 21  1  0  0  0  0
  6 22  1  0  0  0  0
  7 23  1  0  0  0  0
  7 24  1  0  0  0  0
  7 25  1  0  0  0  0
  8 26  1  0  0  0  0
  8 27  1  0  0  0  0
  9 28  1  0  0  0  0
  9 29  1  0  0  0  0
M  END
$$$$
