cyclohepta_135_triene
  -OEChem-10241310043D

 15 15  0     0  0  0  0  0  0999 V2000
    0.7687    0.7144    0.2904 C   0  0  0  0  0  0  0  0  0  0  0  0
    2.0427    0.3200    0.1936 C   0  0  0  0  0  0  0  0  0  0  0  0
    0.2557    1.9766    0.7513 C   0  0  0  0  0  0  0  0  0  0  0  0
    3.2340    1.0545    0.5248 C   0  0  0  0  0  0  0  0  0  0  0  0
    0.9097    3.1328    0.9142 C   0  0  0  0  0  0  0  0  0  0  0  0
    3.3730    2.3701    0.7270 C   0  0  0  0  0  0  0  0  0  0  0  0
    2.3581    3.4710    0.7397 C   0  0  0  0  0  0  0  0  0  0  0  0
    0.0002    0.0003   -0.0013 H   0  0  0  0  0  0  0  0  0  0  0  0
    2.2277   -0.6898   -0.1697 H   0  0  0  0  0  0  0  0  0  0  0  0
   -0.8170    1.9776    0.9391 H   0  0  0  0  0  0  0  0  0  0  0  0
    4.1355    0.4447    0.5627 H   0  0  0  0  0  0  0  0  0  0  0  0
    0.2997    3.9825    1.2229 H   0  0  0  0  0  0  0  0  0  0  0  0
    4.3910    2.7154    0.9116 H   0  0  0  0  0  0  0  0  0  0  0  0
    2.4753    4.0728   -0.1691 H   0  0  0  0  0  0  0  0  0  0  0  0
    2.6250    4.1284    1.5781 H   0  0  0  0  0  0  0  0  0  0  0  0
  1  2  2  0  0  0  0
  1  3  1  0  0  0  0
  2  4  1  0  0  0  0
  3  5  2  0  0  0  0
  4  6  2  0  0  0  0
  5  7  1  0  0  0  0
  6  7  1  0  0  0  0
  1  8  1  0  0  0  0
  2  9  1  0  0  0  0
  3 10  1  0  0  0  0
  4 11  1  0  0  0  0
  5 12  1  0  0  0  0
  6 13  1  0  0  0  0
  7 14  1  0  0  0  0
  7 15  1  0  0  0  0
M  END
$$$$
