1_methylcyclohexene
  -OEChem-10241310033D

 19 19  0     0  0  0  0  0  0999 V2000
    1.7770    0.4548   -1.0854 C   0  0  0  0  0  0  0  0  0  0  0  0
    2.2250    1.2886   -2.0402 C   0  0  0  0  0  0  0  0  0  0  0  0
    0.3712   -0.0661   -1.0290 C   0  0  0  0  0  0  0  0  0  0  0  0
    1.3435    1.7495   -3.1744 C   0  0  0  0  0  0  0  0  0  0  0  0
   -0.5881    0.6852   -1.9522 C   0  0  0  0  0  0  0  0  0  0  0  0
    0.0496    0.9426   -3.3122 C   0  0  0  0  0  0  0  0  0  0  0  0
    3.6292    1.8162   -2.0379 C   0  0  0  0  0  0  0  0  0  0  0  0
    2.4517    0.1322   -0.2967 H   0  0  0  0  0  0  0  0  0  0  0  0
    0.3863   -1.1295   -1.2965 H   0  0  0  0  0  0  0  0  0  0  0  0
   -0.0003    0.0000    0.0000 H   0  0  0  0  0  0  0  0  0  0  0  0
    1.0978    2.8067   -3.0137 H   0  0  0  0  0  0  0  0  0  0  0  0
    1.8937    1.6867   -4.1209 H   0  0  0  0  0  0  0  0  0  0  0  0
   -1.5125    0.1089   -2.0715 H   0  0  0  0  0  0  0  0  0  0  0  0
   -0.8672    1.6424   -1.4933 H   0  0  0  0  0  0  0  0  0  0  0  0
   -0.6512    1.4776   -3.9626 H   0  0  0  0  0  0  0  0  0  0  0  0
    0.2664   -0.0169   -3.7990 H   0  0  0  0  0  0  0  0  0  0  0  0
    4.1713    1.4009   -1.1914 H   0  0  0  0  0  0  0  0  0  0  0  0
    3.6095    2.9012   -1.9617 H   0  0  0  0  0  0  0  0  0  0  0  0
    4.1250    1.5323   -2.9636 H   0  0  0  0  0  0  0  0  0  0  0  0
  1  2  2  0  0  0  0
  1  3  1  0  0  0  0
  2  4  1  0  0  0  0
  2  7  1  0  0  0  0
  3  5  1  0  0  0  0
  4  6  1  0  0  0  0
  5  6  1  0  0  0  0
  1  8  1  0  0  0  0
  3  9  1  0  0  0  0
  3 10  1  0  0  0  0
  4 11  1  0  0  0  0
  4 12  1  0  0  0  0
  5 13  1  0  0  0  0
  5 14  1  0  0  0  0
  6 15  1  0  0  0  0
  6 16  1  0  0  0  0
  7 17  1  0  0  0  0
  7 18  1  0  0  0  0
  7 19  1  0  0  0  0
M  END
$$$$
