CUP08049_AM1BCC_v1_0
  -OEChem-10241310023D

 23 24  0     0  0  0  0  0  0999 V2000
    6.0996    0.8286   -6.6981 C   0  0  0  0  0  0  0  0  0  0  0  0
    4.7779    1.2036   -6.9077 C   0  0  0  0  0  0  0  0  0  0  0  0
    6.4655    0.2751   -5.4785 C   0  0  0  0  0  0  0  0  0  0  0  0
    3.8199    1.0253   -5.8989 C   0  0  0  0  0  0  0  0  0  0  0  0
    5.5064    0.0991   -4.4738 C   0  0  0  0  0  0  0  0  0  0  0  0
    4.1571    0.4683   -4.6562 C   0  0  0  0  0  0  0  0  0  0  0  0
    3.0049   -0.4940   -1.4322 C   0  0  0  0  0  0  0  0  0  0  0  0
    1.5601   -0.2117   -1.3251 C   0  0  0  0  0  0  0  0  0  0  0  0
    1.0308    0.3010   -2.4421 C   0  0  0  0  0  0  0  0  0  0  0  0
    1.8334    0.5768   -3.6765 C   0  0  0  0  0  0  0  0  0  0  0  0
    3.7653   -0.2762   -2.4490 N   0  0  0  0  0  0  0  0  0  0  0  0
    3.2026    0.2680   -3.5893 N   0  0  0  0  0  0  0  0  0  0  0  0
    0.9237   -0.5002   -0.1272 N   0  0  0  0  0  0  0  0  0  0  0  0
    1.2549    1.0487   -4.6552 O   0  0  0  0  0  0  0  0  0  0  0  0
   -0.6598    0.7009   -2.4943 Cl  0  0  0  0  0  0  0  0  0  0  0  0
    6.8391    0.9674   -7.4818 H   0  0  0  0  0  0  0  0  0  0  0  0
    4.4803    1.6383   -7.8590 H   0  0  0  0  0  0  0  0  0  0  0  0
    7.4953   -0.0232   -5.3009 H   0  0  0  0  0  0  0  0  0  0  0  0
    2.8113    1.3442   -6.1366 H   0  0  0  0  0  0  0  0  0  0  0  0
    5.8399   -0.3397   -3.5363 H   0  0  0  0  0  0  0  0  0  0  0  0
    3.4659   -0.9383   -0.5338 H   0  0  0  0  0  0  0  0  0  0  0  0
    1.4880   -0.3058    0.6976 H   0  0  0  0  0  0  0  0  0  0  0  0
   -0.0007   -0.0714   -0.0642 H   0  0  0  0  0  0  0  0  0  0  0  0
  1  2  1  0  0  0  0
  1  3  2  0  0  0  0
  2  4  2  0  0  0  0
  3  5  1  0  0  0  0
  4  6  1  0  0  0  0
  5  6  2  0  0  0  0
  6 12  1  0  0  0  0
  7  8  1  0  0  0  0
  7 11  2  0  0  0  0
  8  9  2  0  0  0  0
  8 13  1  0  0  0  0
  9 10  1  0  0  0  0
  9 15  1  0  0  0  0
 10 12  1  0  0  0  0
 10 14  2  0  0  0  0
 11 12  1  0  0  0  0
  1 16  1  0  0  0  0
  2 17  1  0  0  0  0
  3 18  1  0  0  0  0
  4 19  1  0  0  0  0
  5 20  1  0  0  0  0
  7 21  1  0  0  0  0
 13 22  1  0  0  0  0
 13 23  1  0  0  0  0
M  END
$$$$
