3_acetylpyridine
  -OEChem-10241310033D

 16 16  0     0  0  0  0  0  0999 V2000
    0.2061   -0.4420    0.9680 C   0  0  0  0  0  0  0  0  0  0  0  0
    1.3347   -0.0801    1.6952 C   0  0  0  0  0  0  0  0  0  0  0  0
   -0.6461   -1.3849    1.5199 C   0  0  0  0  0  0  0  0  0  0  0  0
    0.6597   -1.5966    3.3985 C   0  0  0  0  0  0  0  0  0  0  0  0
    1.5731   -0.6637    2.9345 C   0  0  0  0  0  0  0  0  0  0  0  0
    2.7429   -0.3065    3.7179 C   0  0  0  0  0  0  0  0  0  0  0  0
    2.9887   -0.9570    5.0760 C   0  0  0  0  0  0  0  0  0  0  0  0
   -0.4477   -1.9735    2.7207 N   0  0  0  0  0  0  0  0  0  0  0  0
    3.5715    0.5323    3.3083 O   0  0  0  0  0  0  0  0  0  0  0  0
   -0.0001    0.0001    0.0000 H   0  0  0  0  0  0  0  0  0  0  0  0
    2.0212    0.6571    1.2875 H   0  0  0  0  0  0  0  0  0  0  0  0
   -1.5405   -1.7009    0.9932 H   0  0  0  0  0  0  0  0  0  0  0  0
    0.7917   -2.0862    4.3586 H   0  0  0  0  0  0  0  0  0  0  0  0
    3.1135   -2.0356    4.9509 H   0  0  0  0  0  0  0  0  0  0  0  0
    2.1563   -0.7338    5.7484 H   0  0  0  0  0  0  0  0  0  0  0  0
    3.9031   -0.5606    5.5286 H   0  0  0  0  0  0  0  0  0  0  0  0
  1  2  1  0  0  0  0
  1  3  2  0  0  0  0
  2  5  2  0  0  0  0
  3  8  1  0  0  0  0
  4  5  1  0  0  0  0
  4  8  2  0  0  0  0
  5  6  1  0  0  0  0
  6  7  1  0  0  0  0
  6  9  2  0  0  0  0
  1 10  1  0  0  0  0
  2 11  1  0  0  0  0
  3 12  1  0  0  0  0
  4 13  1  0  0  0  0
  7 14  1  0  0  0  0
  7 15  1  0  0  0  0
  7 16  1  0  0  0  0
M  END
$$$$
