res
  -OEChem-09251417133D

 16 16  0     0  0  0  0  0  0999 V2000
    0.0000   -0.5120    0.8370 H   0  0  0  0  0  0  0  0  0  0  0  0
    0.0000    0.0210    0.0060 N   0  0  0  0  0  0  0  0  0  0  0  0
   -0.0180   -0.5420   -0.8490 H   0  0  0  0  0  0  0  0  0  0  0  0
   -0.0330    1.3620   -0.0910 C   0  0  0  0  0  0  0  0  0  0  0  0
   -0.0660    1.9680   -1.1890 O   0  0  0  0  0  0  0  0  0  0  0  0
    0.0220    2.1320    1.1800 C   0  0  0  0  0  0  0  0  0  0  0  0
    0.5170    1.5740    2.3760 C   0  0  0  0  0  0  0  0  0  0  0  0
    0.9060    0.5850    2.4480 H   0  0  0  0  0  0  0  0  0  0  0  0
    0.5160    2.3580    3.5470 C   0  0  0  0  0  0  0  0  0  0  0  0
    0.9130    1.9440    4.4470 H   0  0  0  0  0  0  0  0  0  0  0  0
    0.0600    3.6780    3.5270 C   0  0  0  0  0  0  0  0  0  0  0  0
   -0.4140    4.2290    2.3510 C   0  0  0  0  0  0  0  0  0  0  0  0
   -0.7820    5.2540    2.3480 H   0  0  0  0  0  0  0  0  0  0  0  0
   -0.4310    3.4770    1.1660 C   0  0  0  0  0  0  0  0  0  0  0  0
   -0.8170    3.9310    0.2740 H   0  0  0  0  0  0  0  0  0  0  0  0
    0.0720    4.2690    4.4510 H   0  0  0  0  0  0  0  0  0  0  0  0
  1  2  1  0  0  0  0
  2  3  1  0  0  0  0
  2  4  1  0  0  0  0
  4  5  2  0  0  0  0
  4  6  1  0  0  0  0
  6  7  2  0  0  0  0
  6 14  1  0  0  0  0
  7  8  1  0  0  0  0
  7  9  1  0  0  0  0
  9 10  1  0  0  0  0
  9 11  2  0  0  0  0
 11 12  1  0  0  0  0
 11 16  1  0  0  0  0
 12 13  1  0  0  0  0
 12 14  2  0  0  0  0
 14 15  1  0  0  0  0
M  END
$$$$
