Z_pent_2_ene
  -OEChem-10241310043D

 15 14  0     0  0  0  0  0  0999 V2000
    1.5643   -0.6624    1.2357 C   0  0  0  0  0  0  0  0  0  0  0  0
    0.8257    0.2886    0.6459 C   0  0  0  0  0  0  0  0  0  0  0  0
    1.3215   -2.1259    1.0696 C   0  0  0  0  0  0  0  0  0  0  0  0
    0.1007   -0.1225   -1.7064 C   0  0  0  0  0  0  0  0  0  0  0  0
   -0.3382    0.0013   -0.2557 C   0  0  0  0  0  0  0  0  0  0  0  0
    2.3932   -0.3774    1.8782 H   0  0  0  0  0  0  0  0  0  0  0  0
    1.0602    1.3351    0.8250 H   0  0  0  0  0  0  0  0  0  0  0  0
    2.2079   -2.6045    0.6424 H   0  0  0  0  0  0  0  0  0  0  0  0
    0.4712   -2.3341    0.4124 H   0  0  0  0  0  0  0  0  0  0  0  0
    1.1195   -2.5827    2.0433 H   0  0  0  0  0  0  0  0  0  0  0  0
   -0.7644   -0.3186   -2.3478 H   0  0  0  0  0  0  0  0  0  0  0  0
    0.8116   -0.9456   -1.8356 H   0  0  0  0  0  0  0  0  0  0  0  0
    0.5784    0.7988   -2.0567 H   0  0  0  0  0  0  0  0  0  0  0  0
   -1.0643    0.8170   -0.1634 H   0  0  0  0  0  0  0  0  0  0  0  0
   -0.8525   -0.9189    0.0450 H   0  0  0  0  0  0  0  0  0  0  0  0
  1  2  2  0  0  0  0
  1  3  1  0  0  0  0
  2  5  1  0  0  0  0
  4  5  1  0  0  0  0
  1  6  1  0  0  0  0
  2  7  1  0  0  0  0
  3  8  1  0  0  0  0
  3  9  1  0  0  0  0
  3 10  1  0  0  0  0
  4 11  1  0  0  0  0
  4 12  1  0  0  0  0
  4 13  1  0  0  0  0
  5 14  1  0  0  0  0
  5 15  1  0  0  0  0
M  END
$$$$
