2_methylhexane
  -OEChem-10241310033D

 23 22  0     0  0  0  0  0  0999 V2000
   -0.5128    0.6356   -0.8556 C   0  0  0  0  0  0  0  0  0  0  0  0
   -5.4964   -0.0477    0.9782 C   0  0  0  0  0  0  0  0  0  0  0  0
   -4.2262    0.1997    3.1198 C   0  0  0  0  0  0  0  0  0  0  0  0
   -1.5837    1.5479   -0.2789 C   0  0  0  0  0  0  0  0  0  0  0  0
   -2.6296    0.7568    0.5083 C   0  0  0  0  0  0  0  0  0  0  0  0
   -3.6835    1.6862    1.1179 C   0  0  0  0  0  0  0  0  0  0  0  0
   -4.7797    0.9408    1.9017 C   0  0  0  0  0  0  0  0  0  0  0  0
    0.2230    1.2216   -1.4147 H   0  0  0  0  0  0  0  0  0  0  0  0
    0.0138    0.0979   -0.0610 H   0  0  0  0  0  0  0  0  0  0  0  0
   -0.9500   -0.1007   -1.5376 H   0  0  0  0  0  0  0  0  0  0  0  0
   -4.8060   -0.8081    0.5975 H   0  0  0  0  0  0  0  0  0  0  0  0
   -6.3060   -0.5598    1.5089 H   0  0  0  0  0  0  0  0  0  0  0  0
   -5.9374    0.4706    0.1201 H   0  0  0  0  0  0  0  0  0  0  0  0
   -3.4291   -0.4949    2.8337 H   0  0  0  0  0  0  0  0  0  0  0  0
   -5.0150   -0.3773    3.6147 H   0  0  0  0  0  0  0  0  0  0  0  0
   -3.8232    0.8961    3.8610 H   0  0  0  0  0  0  0  0  0  0  0  0
   -2.0684    2.0951   -1.0958 H   0  0  0  0  0  0  0  0  0  0  0  0
   -1.1094    2.2907    0.3729 H   0  0  0  0  0  0  0  0  0  0  0  0
   -3.1073    0.0337   -0.1618 H   0  0  0  0  0  0  0  0  0  0  0  0
   -2.1358    0.1876    1.3050 H   0  0  0  0  0  0  0  0  0  0  0  0
   -3.1816    2.3892    1.7954 H   0  0  0  0  0  0  0  0  0  0  0  0
   -4.1406    2.2891    0.3227 H   0  0  0  0  0  0  0  0  0  0  0  0
   -5.5208    1.6708    2.2515 H   0  0  0  0  0  0  0  0  0  0  0  0
  1  4  1  0  0  0  0
  2  7  1  0  0  0  0
  3  7  1  0  0  0  0
  4  5  1  0  0  0  0
  5  6  1  0  0  0  0
  6  7  1  0  0  0  0
  1  8  1  0  0  0  0
  1  9  1  0  0  0  0
  1 10  1  0  0  0  0
  2 11  1  0  0  0  0
  2 12  1  0  0  0  0
  2 13  1  0  0  0  0
  3 14  1  0  0  0  0
  3 15  1  0  0  0  0
  3 16  1  0  0  0  0
  4 17  1  0  0  0  0
  4 18  1  0  0  0  0
  5 19  1  0  0  0  0
  5 20  1  0  0  0  0
  6 21  1  0  0  0  0
  6 22  1  0  0  0  0
  7 23  1  0  0  0  0
M  END
$$$$
