3_methoxyphenol
  -OEChem-10241310023D

 17 17  0     0  0  0  0  0  0999 V2000
    0.8324   -0.3948    0.5751 C   0  0  0  0  0  0  0  0  0  0  0  0
    1.8991   -1.0135   -0.0768 C   0  0  0  0  0  0  0  0  0  0  0  0
    0.8349   -0.2829    1.9655 C   0  0  0  0  0  0  0  0  0  0  0  0
    2.9708   -1.4085    2.0522 C   0  0  0  0  0  0  0  0  0  0  0  0
    2.9683   -1.5204    0.6618 C   0  0  0  0  0  0  0  0  0  0  0  0
    1.9042   -0.7896    2.7040 C   0  0  0  0  0  0  0  0  0  0  0  0
    0.7837   -0.0377    4.6623 C   0  0  0  0  0  0  0  0  0  0  0  0
    4.0086   -2.1246    0.0256 O   0  0  0  0  0  0  0  0  0  0  0  0
    1.9062   -0.6810    4.0606 O   0  0  0  0  0  0  0  0  0  0  0  0
   -0.0010   -0.0011    0.0005 H   0  0  0  0  0  0  0  0  0  0  0  0
    1.8915   -1.0984   -1.1600 H   0  0  0  0  0  0  0  0  0  0  0  0
    0.0009    0.1990    2.4683 H   0  0  0  0  0  0  0  0  0  0  0  0
    3.8039   -1.8035    2.6280 H   0  0  0  0  0  0  0  0  0  0  0  0
   -0.0029   -0.7734    4.8472 H   0  0  0  0  0  0  0  0  0  0  0  0
    0.4139    0.7479    3.9986 H   0  0  0  0  0  0  0  0  0  0  0  0
    1.0947    0.4060    5.6110 H   0  0  0  0  0  0  0  0  0  0  0  0
    4.6597   -2.4135    0.6909 H   0  0  0  0  0  0  0  0  0  0  0  0
  1  2  1  0  0  0  0
  1  3  2  0  0  0  0
  2  5  2  0  0  0  0
  3  6  1  0  0  0  0
  4  5  1  0  0  0  0
  4  6  2  0  0  0  0
  5  8  1  0  0  0  0
  6  9  1  0  0  0  0
  7  9  1  0  0  0  0
  1 10  1  0  0  0  0
  2 11  1  0  0  0  0
  3 12  1  0  0  0  0
  4 13  1  0  0  0  0
  7 14  1  0  0  0  0
  7 15  1  0  0  0  0
  7 16  1  0  0  0  0
  8 17  1  0  0  0  0
M  END
$$$$
