chloroethane
  -OEChem-10241310023D

  8  7  0     0  0  0  0  0  0999 V2000
    0.1543   -0.7247    0.8062 C   0  0  0  0  0  0  0  0  0  0  0  0
    1.3672   -0.3680    1.6395 C   0  0  0  0  0  0  0  0  0  0  0  0
    2.8321   -0.3570    0.6342 Cl  0  0  0  0  0  0  0  0  0  0  0  0
   -0.7442   -0.7295    1.4311 H   0  0  0  0  0  0  0  0  0  0  0  0
    0.0000   -0.0000    0.0000 H   0  0  0  0  0  0  0  0  0  0  0  0
    0.2588   -1.7188    0.3591 H   0  0  0  0  0  0  0  0  0  0  0  0
    1.5144   -1.0958    2.4424 H   0  0  0  0  0  0  0  0  0  0  0  0
    1.2550    0.6252    2.0832 H   0  0  0  0  0  0  0  0  0  0  0  0
  1  2  1  0  0  0  0
  2  3  1  0  0  0  0
  1  4  1  0  0  0  0
  1  5  1  0  0  0  0
  1  6  1  0  0  0  0
  2  7  1  0  0  0  0
  2  8  1  0  0  0  0
M  END
$$$$
