benzaldehyde
  -OEChem-10241310033D

 14 14  0     0  0  0  0  0  0999 V2000
    1.8846   -1.0376   -0.1090 C   0  0  0  0  0  0  0  0  0  0  0  0
    0.8176   -0.4410    0.5626 C   0  0  0  0  0  0  0  0  0  0  0  0
    2.9348   -1.6038    0.6137 C   0  0  0  0  0  0  0  0  0  0  0  0
    0.8008   -0.4105    1.9570 C   0  0  0  0  0  0  0  0  0  0  0  0
    2.9180   -1.5734    2.0082 C   0  0  0  0  0  0  0  0  0  0  0  0
    1.8509   -0.9767    2.6799 C   0  0  0  0  0  0  0  0  0  0  0  0
    1.8333   -0.9446    4.1336 C   0  0  0  0  0  0  0  0  0  0  0  0
    2.7308   -1.4281    4.8293 O   0  0  0  0  0  0  0  0  0  0  0  0
    1.8975   -1.0613   -1.1948 H   0  0  0  0  0  0  0  0  0  0  0  0
    0.0001    0.0000   -0.0000 H   0  0  0  0  0  0  0  0  0  0  0  0
    3.7651   -2.0690    0.0906 H   0  0  0  0  0  0  0  0  0  0  0  0
   -0.0358    0.0574    2.4697 H   0  0  0  0  0  0  0  0  0  0  0  0
    3.7417   -2.0179    2.5610 H   0  0  0  0  0  0  0  0  0  0  0  0
    0.9622   -0.4579    4.6242 H   0  0  0  0  0  0  0  0  0  0  0  0
  1  2  1  0  0  0  0
  1  3  2  0  0  0  0
  2  4  2  0  0  0  0
  3  5  1  0  0  0  0
  4  6  1  0  0  0  0
  5  6  2  0  0  0  0
  6  7  1  0  0  0  0
  7  8  2  0  0  0  0
  1  9  1  0  0  0  0
  2 10  1  0  0  0  0
  3 11  1  0  0  0  0
  4 12  1  0  0  0  0
  5 13  1  0  0  0  0
  7 14  1  0  0  0  0
M  END
$$$$
