cyclohexylamine
  -OEChem-10241310023D

 20 20  0     0  0  0  0  0  0999 V2000
    1.0091    0.0279    0.4296 C   0  0  0  0  0  0  0  0  0  0  0  0
    1.9788    0.6051   -0.5982 C   0  0  0  0  0  0  0  0  0  0  0  0
    0.9869    0.8493    1.7159 C   0  0  0  0  0  0  0  0  0  0  0  0
    1.6941    2.0823   -0.8729 C   0  0  0  0  0  0  0  0  0  0  0  0
    0.7042    2.3259    1.4357 C   0  0  0  0  0  0  0  0  0  0  0  0
    1.6666    2.9312    0.4051 C   0  0  0  0  0  0  0  0  0  0  0  0
    3.0131    3.0391    0.9711 N   0  0  0  0  0  0  0  0  0  0  0  0
    0.0000    0.0006   -0.0001 H   0  0  0  0  0  0  0  0  0  0  0  0
    1.2860   -1.0075    0.6576 H   0  0  0  0  0  0  0  0  0  0  0  0
    3.0080    0.4836   -0.2397 H   0  0  0  0  0  0  0  0  0  0  0  0
    1.9017    0.0380   -1.5331 H   0  0  0  0  0  0  0  0  0  0  0  0
    0.2201    0.4520    2.3907 H   0  0  0  0  0  0  0  0  0  0  0  0
    1.9476    0.7449    2.2342 H   0  0  0  0  0  0  0  0  0  0  0  0
    2.4396    2.4748   -1.5756 H   0  0  0  0  0  0  0  0  0  0  0  0
    0.7216    2.1674   -1.3752 H   0  0  0  0  0  0  0  0  0  0  0  0
   -0.3232    2.4243    1.0610 H   0  0  0  0  0  0  0  0  0  0  0  0
    0.7456    2.8917    2.3748 H   0  0  0  0  0  0  0  0  0  0  0  0
    1.3301    3.9433    0.1540 H   0  0  0  0  0  0  0  0  0  0  0  0
    3.0337    3.8160    1.6256 H   0  0  0  0  0  0  0  0  0  0  0  0
    3.6654    3.2687    0.2268 H   0  0  0  0  0  0  0  0  0  0  0  0
  1  2  1  0  0  0  0
  1  3  1  0  0  0  0
  2  4  1  0  0  0  0
  3  5  1  0  0  0  0
  4  6  1  0  0  0  0
  5  6  1  0  0  0  0
  6  7  1  0  0  0  0
  1  8  1  0  0  0  0
  1  9  1  0  0  0  0
  2 10  1  0  0  0  0
  2 11  1  0  0  0  0
  3 12  1  0  0  0  0
  3 13  1  0  0  0  0
  4 14  1  0  0  0  0
  4 15  1  0  0  0  0
  5 16  1  0  0  0  0
  5 17  1  0  0  0  0
  6 18  1  0  0  0  0
  7 19  1  0  0  0  0
  7 20  1  0  0  0  0
M  END
$$$$
