2_chlorotoluene
  -OEChem-10241310023D

 15 15  0     0  0  0  0  0  0999 V2000
    1.8846   -1.0376   -0.1090 C   0  0  0  0  0  0  0  0  0  0  0  0
    0.8176   -0.4410    0.5626 C   0  0  0  0  0  0  0  0  0  0  0  0
    2.9348   -1.6038    0.6137 C   0  0  0  0  0  0  0  0  0  0  0  0
    0.8008   -0.4105    1.9570 C   0  0  0  0  0  0  0  0  0  0  0  0
    2.9180   -1.5734    2.0082 C   0  0  0  0  0  0  0  0  0  0  0  0
    1.8509   -0.9767    2.6799 C   0  0  0  0  0  0  0  0  0  0  0  0
    4.0622   -2.1906    2.7455 C   0  0  0  0  0  0  0  0  0  0  0  0
    1.7954   -0.9200    4.4041 Cl  0  0  0  0  0  0  0  0  0  0  0  0
    1.8976   -1.0612   -1.1947 H   0  0  0  0  0  0  0  0  0  0  0  0
    0.0001   -0.0002   -0.0003 H   0  0  0  0  0  0  0  0  0  0  0  0
    3.7613   -2.0660    0.0803 H   0  0  0  0  0  0  0  0  0  0  0  0
   -0.0381    0.0584    2.4652 H   0  0  0  0  0  0  0  0  0  0  0  0
    4.5645   -1.4381    3.3636 H   0  0  0  0  0  0  0  0  0  0  0  0
    3.7206   -3.0060    3.3943 H   0  0  0  0  0  0  0  0  0  0  0  0
    4.7945   -2.6195    2.0509 H   0  0  0  0  0  0  0  0  0  0  0  0
  1  2  1  0  0  0  0
  1  3  2  0  0  0  0
  2  4  2  0  0  0  0
  3  5  1  0  0  0  0
  4  6  1  0  0  0  0
  5  6  2  0  0  0  0
  5  7  1  0  0  0  0
  6  8  1  0  0  0  0
  1  9  1  0  0  0  0
  2 10  1  0  0  0  0
  3 11  1  0  0  0  0
  4 12  1  0  0  0  0
  7 13  1  0  0  0  0
  7 14  1  0  0  0  0
  7 15  1  0  0  0  0
M  END
$$$$
