4_methylpyridine
  -OEChem-10241310023D

 14 14  0     0  0  0  0  0  0999 V2000
    0.1834   -0.3460    1.0107 C   0  0  0  0  0  0  0  0  0  0  0  0
    1.5263   -0.4068    3.0052 C   0  0  0  0  0  0  0  0  0  0  0  0
   -0.7036   -1.1995    1.6468 C   0  0  0  0  0  0  0  0  0  0  0  0
    0.5791   -1.2576    3.5520 C   0  0  0  0  0  0  0  0  0  0  0  0
    1.3172    0.0532    1.7098 C   0  0  0  0  0  0  0  0  0  0  0  0
    2.3048    0.9706    1.0728 C   0  0  0  0  0  0  0  0  0  0  0  0
   -0.5344   -1.6671    2.9040 N   0  0  0  0  0  0  0  0  0  0  0  0
   -0.0078   -0.0051   -0.0010 H   0  0  0  0  0  0  0  0  0  0  0  0
    2.4005   -0.1139    3.5765 H   0  0  0  0  0  0  0  0  0  0  0  0
   -1.6029   -1.5408    1.1447 H   0  0  0  0  0  0  0  0  0  0  0  0
    0.6956   -1.6444    4.5591 H   0  0  0  0  0  0  0  0  0  0  0  0
    3.3264    0.6049    1.2350 H   0  0  0  0  0  0  0  0  0  0  0  0
    2.1329    1.0534   -0.0084 H   0  0  0  0  0  0  0  0  0  0  0  0
    2.2296    1.9857    1.4845 H   0  0  0  0  0  0  0  0  0  0  0  0
  1  3  1  0  0  0  0
  1  5  2  0  0  0  0
  2  4  2  0  0  0  0
  2  5  1  0  0  0  0
  3  7  2  0  0  0  0
  4  7  1  0  0  0  0
  5  6  1  0  0  0  0
  1  8  1  0  0  0  0
  2  9  1  0  0  0  0
  3 10  1  0  0  0  0
  4 11  1  0  0  0  0
  6 12  1  0  0  0  0
  6 13  1  0  0  0  0
  6 14  1  0  0  0  0
M  END
$$$$
