CUP08014_AM1BCC_v1_0
  -OEChem-10241310023D

 24 25  0     1  0  0  0  0  0999 V2000
    1.6307   -1.0365   -0.8217 C   0  0  0  0  0  0  0  0  0  0  0  0
    0.8153   -0.6633    0.1852 C   0  0  0  0  0  0  0  0  0  0  0  0
    3.6384   -3.6696    1.1701 C   0  0  0  0  0  0  0  0  0  0  0  0
    2.5078   -2.7600    2.9564 C   0  0  0  0  0  0  0  0  0  0  0  0
    2.7253   -2.0727   -0.6743 C   0  0  0  0  0  0  0  0  0  0  0  0
    0.9402   -1.1827    1.6022 C   0  0  0  0  0  0  0  0  0  0  0  0
    2.5187   -2.8383    0.6168 C   0  0  2  0  0  0  0  0  0  0  0  0
    2.2798   -1.8715    1.7675 C   0  0  2  0  0  0  0  0  0  0  0  0
    3.2753   -6.2381    3.6094 C   0  0  0  0  0  0  0  0  0  0  0  0
    3.4075   -3.7240    2.5339 N   0  0  0  0  0  0  0  0  0  0  0  0
    4.5121   -4.2129    0.5167 O   0  0  0  0  0  0  0  0  0  0  0  0
    2.0437   -2.5825    4.0701 O   0  0  0  0  0  0  0  0  0  0  0  0
    4.2772   -4.7118    3.5964 S   0  0  0  0  0  0  0  0  0  0  0  0
    4.0236   -7.4067    4.7458 Cl  0  0  0  0  0  0  0  0  0  0  0  0
    1.6015   -5.9265    4.1512 Cl  0  0  0  0  0  0  0  0  0  0  0  0
    3.2166   -6.9954    1.9913 Cl  0  0  0  0  0  0  0  0  0  0  0  0
    1.5008   -0.5948   -1.8079 H   0  0  0  0  0  0  0  0  0  0  0  0
    0.0292    0.0652   -0.0043 H   0  0  0  0  0  0  0  0  0  0  0  0
    2.6933   -2.7650   -1.5231 H   0  0  0  0  0  0  0  0  0  0  0  0
    3.7035   -1.5791   -0.6983 H   0  0  0  0  0  0  0  0  0  0  0  0
    0.8644   -0.3478    2.3080 H   0  0  0  0  0  0  0  0  0  0  0  0
    0.1085   -1.8631    1.8182 H   0  0  0  0  0  0  0  0  0  0  0  0
    1.6623   -3.5211    0.4982 H   0  0  0  0  0  0  0  0  0  0  0  0
    3.0750   -1.1099    1.8029 H   0  0  0  0  0  0  0  0  0  0  0  0
  1  2  2  0  0  0  0
  1  5  1  0  0  0  0
  2  6  1  0  0  0  0
  3  7  1  0  0  0  0
  3 10  1  0  0  0  0
  3 11  2  0  0  0  0
  4  8  1  0  0  0  0
  4 10  1  0  0  0  0
  4 12  2  0  0  0  0
  5  7  1  0  0  0  0
  6  8  1  0  0  0  0
  7  8  1  0  0  0  0
  9 13  1  0  0  0  0
  9 14  1  0  0  0  0
  9 15  1  0  0  0  0
  9 16  1  0  0  0  0
 10 13  1  0  0  0  0
  1 17  1  0  0  0  0
  2 18  1  0  0  0  0
  5 19  1  0  0  0  0
  5 20  1  0  0  0  0
  6 21  1  0  0  0  0
  6 22  1  0  0  0  0
  7 23  1  0  0  0  0
  8 24  1  0  0  0  0
M  END
$$$$
