hydrogen_sulfide
  -OEChem-10241310023D

  3  2  0     0  0  0  0  0  0999 V2000
   -0.8869    0.2325    0.9787 S   0  0  0  0  0  0  0  0  0  0  0  0
   -0.4014    1.4557    1.2363 H   0  0  0  0  0  0  0  0  0  0  0  0
    0.0000   -0.0000    0.0000 H   0  0  0  0  0  0  0  0  0  0  0  0
  1  2  1  0  0  0  0
  1  3  1  0  0  0  0
M  END
$$$$
