3_methylpyridine
  -OEChem-10241310033D

 14 14  0     0  0  0  0  0  0999 V2000
    0.2061   -0.4420    0.9680 C   0  0  0  0  0  0  0  0  0  0  0  0
    1.3347   -0.0801    1.6952 C   0  0  0  0  0  0  0  0  0  0  0  0
   -0.6461   -1.3849    1.5199 C   0  0  0  0  0  0  0  0  0  0  0  0
    0.6597   -1.5966    3.3985 C   0  0  0  0  0  0  0  0  0  0  0  0
    1.5731   -0.6637    2.9345 C   0  0  0  0  0  0  0  0  0  0  0  0
    2.7718   -0.2985    3.7358 C   0  0  0  0  0  0  0  0  0  0  0  0
   -0.4477   -1.9735    2.7207 N   0  0  0  0  0  0  0  0  0  0  0  0
   -0.0001   -0.0001    0.0001 H   0  0  0  0  0  0  0  0  0  0  0  0
    2.0221    0.6563    1.2881 H   0  0  0  0  0  0  0  0  0  0  0  0
   -1.5396   -1.7024    0.9920 H   0  0  0  0  0  0  0  0  0  0  0  0
    0.7934   -2.0868    4.3580 H   0  0  0  0  0  0  0  0  0  0  0  0
    2.8657    0.7930    3.8144 H   0  0  0  0  0  0  0  0  0  0  0  0
    2.7184   -0.7138    4.7521 H   0  0  0  0  0  0  0  0  0  0  0  0
    3.6933   -0.6920    3.2836 H   0  0  0  0  0  0  0  0  0  0  0  0
  1  2  1  0  0  0  0
  1  3  2  0  0  0  0
  2  5  2  0  0  0  0
  3  7  1  0  0  0  0
  4  5  1  0  0  0  0
  4  7  2  0  0  0  0
  5  6  1  0  0  0  0
  1  8  1  0  0  0  0
  2  9  1  0  0  0  0
  3 10  1  0  0  0  0
  4 11  1  0  0  0  0
  6 12  1  0  0  0  0
  6 13  1  0  0  0  0
  6 14  1  0  0  0  0
M  END
$$$$
