hexanoic_acid
  -OEChem-10241310023D

 20 19  0     0  0  0  0  0  0999 V2000
    1.8843   -2.4290   -4.5140 C   0  0  0  0  0  0  0  0  0  0  0  0
   -0.0300    2.7185   -1.1894 C   0  0  0  0  0  0  0  0  0  0  0  0
    2.1156   -1.2087   -3.6520 C   0  0  0  0  0  0  0  0  0  0  0  0
   -0.2814    1.4698   -2.0194 C   0  0  0  0  0  0  0  0  0  0  0  0
    0.8037   -0.5226   -3.2726 C   0  0  0  0  0  0  0  0  0  0  0  0
    1.0009    0.7710   -2.4773 C   0  0  0  0  0  0  0  0  0  0  0  0
    0.7924   -2.8562   -4.8621 O   0  0  0  0  0  0  0  0  0  0  0  0
    3.0575   -3.0190   -4.8634 O   0  0  0  0  0  0  0  0  0  0  0  0
   -0.9774    3.1135   -0.8087 H   0  0  0  0  0  0  0  0  0  0  0  0
    0.6137    2.4978   -0.3322 H   0  0  0  0  0  0  0  0  0  0  0  0
    0.4412    3.5067   -1.7836 H   0  0  0  0  0  0  0  0  0  0  0  0
    2.6476   -1.5334   -2.7518 H   0  0  0  0  0  0  0  0  0  0  0  0
    2.7463   -0.5095   -4.2121 H   0  0  0  0  0  0  0  0  0  0  0  0
   -0.8618    0.7615   -1.4157 H   0  0  0  0  0  0  0  0  0  0  0  0
   -0.9071    1.7233   -2.8822 H   0  0  0  0  0  0  0  0  0  0  0  0
    0.1670   -1.2178   -2.7125 H   0  0  0  0  0  0  0  0  0  0  0  0
    0.2474   -0.2779   -4.1867 H   0  0  0  0  0  0  0  0  0  0  0  0
    1.5846    1.4685   -3.0911 H   0  0  0  0  0  0  0  0  0  0  0  0
    1.6127    0.5544   -1.5928 H   0  0  0  0  0  0  0  0  0  0  0  0
    2.9670   -3.8213   -5.4212 H   0  0  0  0  0  0  0  0  0  0  0  0
  1  3  1  0  0  0  0
  1  7  2  0  0  0  0
  1  8  1  0  0  0  0
  2  4  1  0  0  0  0
  3  5  1  0  0  0  0
  4  6  1  0  0  0  0
  5  6  1  0  0  0  0
  2  9  1  0  0  0  0
  2 10  1  0  0  0  0
  2 11  1  0  0  0  0
  3 12  1  0  0  0  0
  3 13  1  0  0  0  0
  4 14  1  0  0  0  0
  4 15  1  0  0  0  0
  5 16  1  0  0  0  0
  5 17  1  0  0  0  0
  6 18  1  0  0  0  0
  6 19  1  0  0  0  0
  8 20  1  0  0  0  0
M  END
$$$$
