d-glucose
  -OEChem-10241310043D

 24 24  0     1  0  0  0  0  0999 V2000
   -1.4240   -1.4910   -0.6420 C   0  0  1  0  0  0  0  0  0  0  0  0
   -0.7390   -0.1330   -0.8000 C   0  0  1  0  0  0  0  0  0  0  0  0
   -0.4800   -2.6340   -1.0160 C   0  0  2  0  0  0  0  0  0  0  0  0
   -0.0640   -0.0220   -2.1700 C   0  0  1  0  0  0  0  0  0  0  0  0
    0.2030   -2.3730   -2.3590 C   0  0  1  0  0  0  0  0  0  0  0  0
    0.7250    1.2760   -2.3060 C   0  0  0  0  0  0  0  0  0  0  0  0
    0.8520   -1.1030   -2.3510 O   0  0  0  0  0  0  0  0  0  0  0  0
   -1.8480   -1.6520    0.7120 O   0  0  0  0  0  0  0  0  0  0  0  0
   -1.7100    0.9020   -0.6670 O   0  0  0  0  0  0  0  0  0  0  0  0
   -1.2210   -3.8520   -1.0860 O   0  0  0  0  0  0  0  0  0  0  0  0
    1.1670   -3.4050   -2.5670 O   0  0  0  0  0  0  0  0  0  0  0  0
    1.3270    1.3050   -3.5870 O   0  0  0  0  0  0  0  0  0  0  0  0
   -2.3370   -1.5300   -1.2480 H   0  0  0  0  0  0  0  0  0  0  0  0
    0.0000    0.0020   -0.0010 H   0  0  0  0  0  0  0  0  0  0  0  0
    0.2720   -2.7730   -0.2310 H   0  0  0  0  0  0  0  0  0  0  0  0
   -0.8140   -0.0420   -2.9720 H   0  0  0  0  0  0  0  0  0  0  0  0
   -0.5170   -2.4240   -3.1850 H   0  0  0  0  0  0  0  0  0  0  0  0
    1.5010    1.3220   -1.5420 H   0  0  0  0  0  0  0  0  0  0  0  0
    0.0560    2.1310   -2.2030 H   0  0  0  0  0  0  0  0  0  0  0  0
   -1.0490   -1.6000    1.2570 H   0  0  0  0  0  0  0  0  0  0  0  0
   -2.3640    0.7580   -1.3690 H   0  0  0  0  0  0  0  0  0  0  0  0
   -1.8990   -3.7220   -1.7660 H   0  0  0  0  0  0  0  0  0  0  0  0
    1.5860   -3.2200   -3.4210 H   0  0  0  0  0  0  0  0  0  0  0  0
    1.8230    2.1390   -3.6510 H   0  0  0  0  0  0  0  0  0  0  0  0
  1  2  1  0  0  0  0
  1  3  1  0  0  0  0
  1  8  1  0  0  0  0
  2  4  1  0  0  0  0
  2  9  1  0  0  0  0
  3  5  1  0  0  0  0
  3 10  1  0  0  0  0
  4  6  1  0  0  0  0
  4  7  1  0  0  0  0
  5  7  1  0  0  0  0
  5 11  1  0  0  0  0
  6 12  1  0  0  0  0
  1 13  1  0  0  0  0
  2 14  1  0  0  0  0
  3 15  1  0  0  0  0
  4 16  1  0  0  0  0
  5 17  1  0  0  0  0
  6 18  1  0  0  0  0
  6 19  1  0  0  0  0
  8 20  1  0  0  0  0
  9 21  1  0  0  0  0
 10 22  1  0  0  0  0
 11 23  1  0  0  0  0
 12 24  1  0  0  0  0
M  END
$$$$
