s60
  -OEChem-09251417133D

 11 10  0     0  0  0  0  0  0999 V2000
   -1.9970   -0.0150   -1.0150 C   0  0  0  0  0  0  0  0  0  0  0  0
   -1.8650   -0.1010   -2.0560 H   0  0  0  0  0  0  0  0  0  0  0  0
   -1.2160    0.6620   -0.6290 H   0  0  0  0  0  0  0  0  0  0  0  0
   -1.9010   -1.3490   -0.2820 C   0  0  0  0  0  0  0  0  0  0  0  0
   -0.9110   -1.8040   -0.4910 H   0  0  0  0  0  0  0  0  0  0  0  0
   -2.0210   -1.1860    0.7610 H   0  0  0  0  0  0  0  0  0  0  0  0
   -2.9810   -2.3160   -0.7890 C   0  0  0  0  0  0  0  0  0  0  0  0
   -2.9070   -3.3000   -0.2920 H   0  0  0  0  0  0  0  0  0  0  0  0
   -3.9730   -1.9150   -0.6320 H   0  0  0  0  0  0  0  0  0  0  0  0
   -2.8900   -2.5100   -1.8690 H   0  0  0  0  0  0  0  0  0  0  0  0
   -2.9800    0.4660   -0.8200 H   0  0  0  0  0  0  0  0  0  0  0  0
  1  2  1  0  0  0  0
  1  3  1  0  0  0  0
  1  4  1  0  0  0  0
  1 11  1  0  0  0  0
  4  5  1  0  0  0  0
  4  6  1  0  0  0  0
  4  7  1  0  0  0  0
  7  8  1  0  0  0  0
  7  9  1  0  0  0  0
  7 10  1  0  0  0  0
M  END
$$$$
