CUP08021_AM1BCC_v1_0
  -OEChem-10241310023D

  7  6  0     0  0  0  0  0  0999 V2000
    1.4276   -0.1419    0.4900 C   0  0  0  0  0  0  0  0  0  0  0  0
   -0.0217    0.0040   -0.0075 N   0  3  0  0  0  0  0  0  0  0  0  0
   -0.4787   -0.9009   -0.7312 O   0  5  0  0  0  0  0  0  0  0  0  0
   -0.6805    1.0044    0.3260 O   0  0  0  0  0  0  0  0  0  0  0  0
    1.4816   -1.6291    1.4529 Cl  0  0  0  0  0  0  0  0  0  0  0  0
    2.4512   -0.2343   -0.9545 Cl  0  0  0  0  0  0  0  0  0  0  0  0
    1.8774    1.2600    1.4804 Cl  0  0  0  0  0  0  0  0  0  0  0  0
  1  2  1  0  0  0  0
  1  5  1  0  0  0  0
  1  6  1  0  0  0  0
  1  7  1  0  0  0  0
  2  3  1  0  0  0  0
  2  4  2  0  0  0  0
M  CHG  2   2   1   3  -1
M  END
$$$$
