n_pentyl_acetate
  -OEChem-10241310033D

 23 22  0     0  0  0  0  0  0999 V2000
    5.2396   -2.0410   -5.0250 C   0  0  0  0  0  0  0  0  0  0  0  0
    5.9981   -3.2190   -5.5571 C   0  0  0  0  0  0  0  0  0  0  0  0
    0.8518   -0.3688    0.6905 C   0  0  0  0  0  0  0  0  0  0  0  0
    1.6513   -1.4310   -0.0471 C   0  0  0  0  0  0  0  0  0  0  0  0
    2.2938   -0.8687   -1.3148 C   0  0  0  0  0  0  0  0  0  0  0  0
    3.1237   -1.9294   -2.0346 C   0  0  0  0  0  0  0  0  0  0  0  0
    3.8013   -1.3663   -3.2758 C   0  0  0  0  0  0  0  0  0  0  0  0
    5.2382   -0.9344   -5.5470 O   0  0  0  0  0  0  0  0  0  0  0  0
    4.5660   -2.3952   -3.8884 O   0  0  0  0  0  0  0  0  0  0  0  0
    5.3033   -4.0227   -5.8129 H   0  0  0  0  0  0  0  0  0  0  0  0
    6.7242   -3.5589   -4.8143 H   0  0  0  0  0  0  0  0  0  0  0  0
    6.5382   -2.9240   -6.4615 H   0  0  0  0  0  0  0  0  0  0  0  0
    1.4920    0.4677    0.9886 H   0  0  0  0  0  0  0  0  0  0  0  0
    0.0454    0.0222    0.0620 H   0  0  0  0  0  0  0  0  0  0  0  0
    0.4031   -0.7919    1.5947 H   0  0  0  0  0  0  0  0  0  0  0  0
    0.9892   -2.2661   -0.3036 H   0  0  0  0  0  0  0  0  0  0  0  0
    2.4270   -1.8247    0.6201 H   0  0  0  0  0  0  0  0  0  0  0  0
    1.5129   -0.4939   -1.9877 H   0  0  0  0  0  0  0  0  0  0  0  0
    2.9330   -0.0158   -1.0553 H   0  0  0  0  0  0  0  0  0  0  0  0
    2.4898   -2.7778   -2.3208 H   0  0  0  0  0  0  0  0  0  0  0  0
    3.8852   -2.3389   -1.3593 H   0  0  0  0  0  0  0  0  0  0  0  0
    4.4727   -0.5420   -3.0147 H   0  0  0  0  0  0  0  0  0  0  0  0
    3.0598   -1.0074   -3.9966 H   0  0  0  0  0  0  0  0  0  0  0  0
  1  2  1  0  0  0  0
  1  8  2  0  0  0  0
  1  9  1  0  0  0  0
  3  4  1  0  0  0  0
  4  5  1  0  0  0  0
  5  6  1  0  0  0  0
  6  7  1  0  0  0  0
  7  9  1  0  0  0  0
  2 10  1  0  0  0  0
  2 11  1  0  0  0  0
  2 12  1  0  0  0  0
  3 13  1  0  0  0  0
  3 14  1  0  0  0  0
  3 15  1  0  0  0  0
  4 16  1  0  0  0  0
  4 17  1  0  0  0  0
  5 18  1  0  0  0  0
  5 19  1  0  0  0  0
  6 20  1  0  0  0  0
  6 21  1  0  0  0  0
  7 22  1  0  0  0  0
  7 23  1  0  0  0  0
M  END
$$$$
