SAMPL4_036
  -OEChem-10241310023D

 19 19  0     0  0  0  0  0  0999 V2000
    2.3660   -1.3020   -0.3360 C   0  0  0  0  0  0  0  0  0  0  0  0
    3.2850   -1.9550    0.4850 C   0  0  0  0  0  0  0  0  0  0  0  0
    1.3230   -0.5690    0.2300 C   0  0  0  0  0  0  0  0  0  0  0  0
    3.1600   -1.8760    1.8730 C   0  0  0  0  0  0  0  0  0  0  0  0
    1.1970   -0.4900    1.6170 C   0  0  0  0  0  0  0  0  0  0  0  0
    2.1160   -1.1440    2.4380 C   0  0  0  0  0  0  0  0  0  0  0  0
   -1.0530   -0.5950    2.7170 C   0  0  0  0  0  0  0  0  0  0  0  0
    0.0740    0.2970    2.2040 C   0  0  0  0  0  0  0  0  0  0  0  0
    2.0070   -1.0780    3.7950 O   0  0  0  0  0  0  0  0  0  0  0  0
    2.4630   -1.3630   -1.4160 H   0  0  0  0  0  0  0  0  0  0  0  0
    4.0970   -2.5260    0.0450 H   0  0  0  0  0  0  0  0  0  0  0  0
    0.6110   -0.0650   -0.4190 H   0  0  0  0  0  0  0  0  0  0  0  0
    3.8780   -2.3870    2.5070 H   0  0  0  0  0  0  0  0  0  0  0  0
   -1.4410   -1.2360    1.9180 H   0  0  0  0  0  0  0  0  0  0  0  0
   -1.8820    0.0100    3.0980 H   0  0  0  0  0  0  0  0  0  0  0  0
   -0.7040   -1.2420    3.5280 H   0  0  0  0  0  0  0  0  0  0  0  0
    0.4390    0.9270    3.0300 H   0  0  0  0  0  0  0  0  0  0  0  0
   -0.3320    0.9990    1.4590 H   0  0  0  0  0  0  0  0  0  0  0  0
    2.7210   -1.5850    4.2130 H   0  0  0  0  0  0  0  0  0  0  0  0
  1  2  2  0  0  0  0
  1  3  1  0  0  0  0
  2  4  1  0  0  0  0
  3  5  2  0  0  0  0
  4  6  2  0  0  0  0
  5  6  1  0  0  0  0
  5  8  1  0  0  0  0
  6  9  1  0  0  0  0
  7  8  1  0  0  0  0
  1 10  1  0  0  0  0
  2 11  1  0  0  0  0
  3 12  1  0  0  0  0
  4 13  1  0  0  0  0
  7 14  1  0  0  0  0
  7 15  1  0  0  0  0
  7 16  1  0  0  0  0
  8 17  1  0  0  0  0
  8 18  1  0  0  0  0
  9 19  1  0  0  0  0
M  END
$$$$
