25_dimethylphenol
  -OEChem-10241310023D

 19 19  0     0  0  0  0  0  0999 V2000
    1.8743   -1.0531   -0.1334 C   0  0  0  0  0  0  0  0  0  0  0  0
    0.8060   -0.4743    0.5520 C   0  0  0  0  0  0  0  0  0  0  0  0
    2.8764   -1.6932    1.9697 C   0  0  0  0  0  0  0  0  0  0  0  0
    2.9095   -1.6626    0.5756 C   0  0  0  0  0  0  0  0  0  0  0  0
    0.7731   -0.5047    1.9461 C   0  0  0  0  0  0  0  0  0  0  0  0
    1.8083   -1.1142    2.6550 C   0  0  0  0  0  0  0  0  0  0  0  0
    4.0508   -2.2823   -0.1574 C   0  0  0  0  0  0  0  0  0  0  0  0
   -0.3780    0.1201    2.6629 C   0  0  0  0  0  0  0  0  0  0  0  0
    1.7917   -1.1528    4.0168 O   0  0  0  0  0  0  0  0  0  0  0  0
    1.8919   -1.0253   -1.2195 H   0  0  0  0  0  0  0  0  0  0  0  0
    0.0045   -0.0011   -0.0097 H   0  0  0  0  0  0  0  0  0  0  0  0
    3.6819   -2.1684    2.5243 H   0  0  0  0  0  0  0  0  0  0  0  0
    4.8278   -2.6038    0.5470 H   0  0  0  0  0  0  0  0  0  0  0  0
    3.7249   -3.1551   -0.7380 H   0  0  0  0  0  0  0  0  0  0  0  0
    4.4976   -1.5761   -0.8696 H   0  0  0  0  0  0  0  0  0  0  0  0
   -0.3037   -0.0699    3.7401 H   0  0  0  0  0  0  0  0  0  0  0  0
   -0.4050    1.2048    2.5006 H   0  0  0  0  0  0  0  0  0  0  0  0
   -1.3341   -0.2801    2.3028 H   0  0  0  0  0  0  0  0  0  0  0  0
    1.1571   -0.4888    4.3416 H   0  0  0  0  0  0  0  0  0  0  0  0
  1  2  1  0  0  0  0
  1  4  2  0  0  0  0
  2  5  2  0  0  0  0
  3  4  1  0  0  0  0
  3  6  2  0  0  0  0
  4  7  1  0  0  0  0
  5  6  1  0  0  0  0
  5  8  1  0  0  0  0
  6  9  1  0  0  0  0
  1 10  1  0  0  0  0
  2 11  1  0  0  0  0
  3 12  1  0  0  0  0
  7 13  1  0  0  0  0
  7 14  1  0  0  0  0
  7 15  1  0  0  0  0
  8 16  1  0  0  0  0
  8 17  1  0  0  0  0
  8 18  1  0  0  0  0
  9 19  1  0  0  0  0
M  END
$$$$
