propanoic_acid
  -OEChem-10241310033D

 11 10  0     0  0  0  0  0  0999 V2000
   -0.9082   -1.5561   -2.1106 C   0  0  0  0  0  0  0  0  0  0  0  0
    0.7690   -0.5809   -0.5200 C   0  0  0  0  0  0  0  0  0  0  0  0
    0.3923   -0.8062   -1.9738 C   0  0  0  0  0  0  0  0  0  0  0  0
   -1.6174   -1.9436   -1.1942 O   0  0  0  0  0  0  0  0  0  0  0  0
   -1.1977   -1.7502   -3.4230 O   0  0  0  0  0  0  0  0  0  0  0  0
    1.7150   -0.0351   -0.4515 H   0  0  0  0  0  0  0  0  0  0  0  0
    0.0000    0.0000    0.0000 H   0  0  0  0  0  0  0  0  0  0  0  0
    0.8837   -1.5331    0.0086 H   0  0  0  0  0  0  0  0  0  0  0  0
    0.2897    0.1613   -2.4762 H   0  0  0  0  0  0  0  0  0  0  0  0
    1.1801   -1.3852   -2.4671 H   0  0  0  0  0  0  0  0  0  0  0  0
   -2.0410   -2.2367   -3.5433 H   0  0  0  0  0  0  0  0  0  0  0  0
  1  3  1  0  0  0  0
  1  4  2  0  0  0  0
  1  5  1  0  0  0  0
  2  3  1  0  0  0  0
  2  6  1  0  0  0  0
  2  7  1  0  0  0  0
  2  8  1  0  0  0  0
  3  9  1  0  0  0  0
  3 10  1  0  0  0  0
  5 11  1  0  0  0  0
M  END
$$$$
