p_dibromobenzene
  -OEChem-10241310033D

 12 12  0     0  0  0  0  0  0999 V2000
    0.8178   -0.4385    0.5644 C   0  0  0  0  0  0  0  0  0  0  0  0
    0.7994   -0.4058    1.9588 C   0  0  0  0  0  0  0  0  0  0  0  0
    2.9371   -1.5972    0.6197 C   0  0  0  0  0  0  0  0  0  0  0  0
    2.9185   -1.5646    2.0141 C   0  0  0  0  0  0  0  0  0  0  0  0
    1.8867   -1.0341   -0.1051 C   0  0  0  0  0  0  0  0  0  0  0  0
    1.8497   -0.9689    2.6836 C   0  0  0  0  0  0  0  0  0  0  0  0
    1.9120   -1.0782   -1.9943 Br  0  0  0  0  0  0  0  0  0  0  0  0
    1.8245   -0.9248    4.5728 Br  0  0  0  0  0  0  0  0  0  0  0  0
   -0.0080    0.0045    0.0140 H   0  0  0  0  0  0  0  0  0  0  0  0
   -0.0405    0.0620    2.4657 H   0  0  0  0  0  0  0  0  0  0  0  0
    3.7770   -2.0649    0.1128 H   0  0  0  0  0  0  0  0  0  0  0  0
    3.7443   -2.0077    2.5644 H   0  0  0  0  0  0  0  0  0  0  0  0
  1  2  1  0  0  0  0
  1  5  2  0  0  0  0
  2  6  2  0  0  0  0
  3  4  2  0  0  0  0
  3  5  1  0  0  0  0
  4  6  1  0  0  0  0
  5  7  1  0  0  0  0
  6  8  1  0  0  0  0
  1  9  1  0  0  0  0
  2 10  1  0  0  0  0
  3 11  1  0  0  0  0
  4 12  1  0  0  0  0
M  END
$$$$
