11_dichloroethene
  -OEChem-10241310023D

  6  5  0     0  0  0  0  0  0999 V2000
   -0.5468   -0.2635   -0.8997 C   0  0  0  0  0  0  0  0  0  0  0  0
   -0.9360   -1.5194   -1.1376 C   0  0  0  0  0  0  0  0  0  0  0  0
   -0.5836   -2.7829   -0.0179 Cl  0  0  0  0  0  0  0  0  0  0  0  0
   -1.8050   -1.9208   -2.5723 Cl  0  0  0  0  0  0  0  0  0  0  0  0
   -0.7632    0.5391   -1.5975 H   0  0  0  0  0  0  0  0  0  0  0  0
    0.0000    0.0000    0.0000 H   0  0  0  0  0  0  0  0  0  0  0  0
  1  2  2  0  0  0  0
  2  3  1  0  0  0  0
  2  4  1  0  0  0  0
  1  5  1  0  0  0  0
  1  6  1  0  0  0  0
M  END
$$$$
