1_iodohexane
  -OEChem-10241310033D

 20 19  0     0  0  0  0  0  0999 V2000
    0.6358   -0.6970    0.5558 C   0  0  0  0  0  0  0  0  0  0  0  0
   -0.0569   -1.1329    1.8370 C   0  0  0  0  0  0  0  0  0  0  0  0
    0.8240   -2.0750    2.6572 C   0  0  0  0  0  0  0  0  0  0  0  0
    0.1101   -2.5375    3.9297 C   0  0  0  0  0  0  0  0  0  0  0  0
    1.0061   -3.4606    4.7630 C   0  0  0  0  0  0  0  0  0  0  0  0
    0.3014   -4.0388    5.9913 C   0  0  0  0  0  0  0  0  0  0  0  0
    1.5336   -5.4151    7.0675 I   0  0  0  0  0  0  0  0  0  0  0  0
    1.5684   -0.1672    0.7746 H   0  0  0  0  0  0  0  0  0  0  0  0
   -0.0116   -0.0235   -0.0146 H   0  0  0  0  0  0  0  0  0  0  0  0
    0.8702   -1.5594   -0.0764 H   0  0  0  0  0  0  0  0  0  0  0  0
   -0.3067   -0.2456    2.4304 H   0  0  0  0  0  0  0  0  0  0  0  0
   -1.0004   -1.6305    1.5843 H   0  0  0  0  0  0  0  0  0  0  0  0
    1.7577   -1.5653    2.9246 H   0  0  0  0  0  0  0  0  0  0  0  0
    1.0942   -2.9470    2.0493 H   0  0  0  0  0  0  0  0  0  0  0  0
   -0.8110   -3.0679    3.6591 H   0  0  0  0  0  0  0  0  0  0  0  0
   -0.1831   -1.6596    4.5156 H   0  0  0  0  0  0  0  0  0  0  0  0
    1.9223   -2.9329    5.0546 H   0  0  0  0  0  0  0  0  0  0  0  0
    1.3175   -4.3001    4.1281 H   0  0  0  0  0  0  0  0  0  0  0  0
   -0.0340   -3.2340    6.6545 H   0  0  0  0  0  0  0  0  0  0  0  0
   -0.5964   -4.5743    5.6615 H   0  0  0  0  0  0  0  0  0  0  0  0
  1  2  1  0  0  0  0
  2  3  1  0  0  0  0
  3  4  1  0  0  0  0
  4  5  1  0  0  0  0
  5  6  1  0  0  0  0
  6  7  1  0  0  0  0
  1  8  1  0  0  0  0
  1  9  1  0  0  0  0
  1 10  1  0  0  0  0
  2 11  1  0  0  0  0
  2 12  1  0  0  0  0
  3 13  1  0  0  0  0
  3 14  1  0  0  0  0
  4 15  1  0  0  0  0
  4 16  1  0  0  0  0
  5 17  1  0  0  0  0
  5 18  1  0  0  0  0
  6 19  1  0  0  0  0
  6 20  1  0  0  0  0
M  END
$$$$
