2_methylthiophene
  -OEChem-10241310043D

 12 12  0     0  0  0  0  0  0999 V2000
   -0.0619    0.6736   -2.1200 C   0  0  0  0  0  0  0  0  0  0  0  0
   -0.3790   -0.1513   -1.0023 C   0  0  0  0  0  0  0  0  0  0  0  0
   -0.6859    0.2469   -3.2715 C   0  0  0  0  0  0  0  0  0  0  0  0
   -1.2335   -1.1769   -1.3423 C   0  0  0  0  0  0  0  0  0  0  0  0
   -1.7911   -2.2366   -0.4737 C   0  0  0  0  0  0  0  0  0  0  0  0
   -1.6496   -1.1428   -3.0031 S   0  0  0  0  0  0  0  0  0  0  0  0
    0.5912    1.5357   -2.0817 H   0  0  0  0  0  0  0  0  0  0  0  0
    0.0021    0.0035   -0.0008 H   0  0  0  0  0  0  0  0  0  0  0  0
   -0.6216    0.6848   -4.2576 H   0  0  0  0  0  0  0  0  0  0  0  0
   -1.1749   -2.3706    0.4292 H   0  0  0  0  0  0  0  0  0  0  0  0
   -2.8165   -2.0097   -0.1400 H   0  0  0  0  0  0  0  0  0  0  0  0
   -1.8391   -3.2099   -0.9882 H   0  0  0  0  0  0  0  0  0  0  0  0
  1  2  1  0  0  0  0
  1  3  2  0  0  0  0
  2  4  2  0  0  0  0
  3  6  1  0  0  0  0
  4  5  1  0  0  0  0
  4  6  1  0  0  0  0
  1  7  1  0  0  0  0
  2  8  1  0  0  0  0
  3  9  1  0  0  0  0
  5 10  1  0  0  0  0
  5 11  1  0  0  0  0
  5 12  1  0  0  0  0
M  END
$$$$
