3_chloroprop_1_ene
  -OEChem-10241310033D

  9  8  0     0  0  0  0  0  0999 V2000
   -0.5247   -0.5544    0.7701 C   0  0  0  0  0  0  0  0  0  0  0  0
   -0.5340   -1.8920    0.7869 C   0  0  0  0  0  0  0  0  0  0  0  0
    0.1485   -2.7409   -0.2330 C   0  0  0  0  0  0  0  0  0  0  0  0
    1.3432   -3.7928    0.5551 Cl  0  0  0  0  0  0  0  0  0  0  0  0
   -1.0468    0.0082    1.5364 H   0  0  0  0  0  0  0  0  0  0  0  0
    0.0000   -0.0000    0.0000 H   0  0  0  0  0  0  0  0  0  0  0  0
   -1.0822   -2.3969    1.5784 H   0  0  0  0  0  0  0  0  0  0  0  0
   -0.5802   -3.3788   -0.7416 H   0  0  0  0  0  0  0  0  0  0  0  0
    0.6730   -2.1466   -0.9874 H   0  0  0  0  0  0  0  0  0  0  0  0
  1  2  2  0  0  0  0
  2  3  1  0  0  0  0
  3  4  1  0  0  0  0
  1  5  1  0  0  0  0
  1  6  1  0  0  0  0
  2  7  1  0  0  0  0
  3  8  1  0  0  0  0
  3  9  1  0  0  0  0
M  END
$$$$
