pentan_3_ol
  -OEChem-10241310033D

 18 17  0     0  0  0  0  0  0999 V2000
   -0.2299    0.9454    0.2524 C   0  0  0  0  0  0  0  0  0  0  0  0
   -2.7412   -0.2455    4.5088 C   0  0  0  0  0  0  0  0  0  0  0  0
   -0.4534    1.2393    1.7303 C   0  0  0  0  0  0  0  0  0  0  0  0
   -1.6986    0.6411    3.8403 C   0  0  0  0  0  0  0  0  0  0  0  0
   -1.5325    0.3415    2.3459 C   0  0  0  0  0  0  0  0  0  0  0  0
   -1.1462   -1.0186    2.1649 O   0  0  0  0  0  0  0  0  0  0  0  0
    0.5249    1.6246   -0.1566 H   0  0  0  0  0  0  0  0  0  0  0  0
    0.1217   -0.0794    0.0976 H   0  0  0  0  0  0  0  0  0  0  0  0
   -1.1541    1.0827   -0.3178 H   0  0  0  0  0  0  0  0  0  0  0  0
   -2.8709    0.0505    5.5548 H   0  0  0  0  0  0  0  0  0  0  0  0
   -3.7107   -0.1561    4.0086 H   0  0  0  0  0  0  0  0  0  0  0  0
   -2.4406   -1.2974    4.4963 H   0  0  0  0  0  0  0  0  0  0  0  0
    0.4981    1.0921    2.2559 H   0  0  0  0  0  0  0  0  0  0  0  0
   -0.7352    2.2926    1.8430 H   0  0  0  0  0  0  0  0  0  0  0  0
   -0.7427    0.4948    4.3577 H   0  0  0  0  0  0  0  0  0  0  0  0
   -1.9917    1.6886    3.9765 H   0  0  0  0  0  0  0  0  0  0  0  0
   -2.4821    0.4995    1.8209 H   0  0  0  0  0  0  0  0  0  0  0  0
   -0.2033   -1.0694    2.3854 H   0  0  0  0  0  0  0  0  0  0  0  0
  1  3  1  0  0  0  0
  2  4  1  0  0  0  0
  3  5  1  0  0  0  0
  4  5  1  0  0  0  0
  5  6  1  0  0  0  0
  1  7  1  0  0  0  0
  1  8  1  0  0  0  0
  1  9  1  0  0  0  0
  2 10  1  0  0  0  0
  2 11  1  0  0  0  0
  2 12  1  0  0  0  0
  3 13  1  0  0  0  0
  3 14  1  0  0  0  0
  4 15  1  0  0  0  0
  4 16  1  0  0  0  0
  5 17  1  0  0  0  0
  6 18  1  0  0  0  0
M  END
$$$$
