NN_dimethylformamide
  -OEChem-10241310033D

 12 11  0     0  0  0  0  0  0999 V2000
    2.8181   -1.4424    0.2525 C   0  0  0  0  0  0  0  0  0  0  0  0
    0.9276   -0.0771   -0.5743 C   0  0  0  0  0  0  0  0  0  0  0  0
    0.7832   -2.5563   -0.6072 C   0  0  0  0  0  0  0  0  0  0  0  0
    1.5475   -1.3611   -0.2934 N   0  0  0  0  0  0  0  0  0  0  0  0
    3.5591   -0.5150    0.5594 O   0  0  0  0  0  0  0  0  0  0  0  0
    3.1373   -2.4870    0.4011 H   0  0  0  0  0  0  0  0  0  0  0  0
   -0.1338   -0.1382   -0.3256 H   0  0  0  0  0  0  0  0  0  0  0  0
    1.0534    0.1501   -1.6351 H   0  0  0  0  0  0  0  0  0  0  0  0
    1.4135    0.6893    0.0333 H   0  0  0  0  0  0  0  0  0  0  0  0
   -0.0500   -2.6340    0.0942 H   0  0  0  0  0  0  0  0  0  0  0  0
    1.4365   -3.4266   -0.5140 H   0  0  0  0  0  0  0  0  0  0  0  0
    0.4087   -2.4767   -1.6299 H   0  0  0  0  0  0  0  0  0  0  0  0
  1  4  1  0  0  0  0
  1  5  2  0  0  0  0
  2  4  1  0  0  0  0
  3  4  1  0  0  0  0
  1  6  1  0  0  0  0
  2  7  1  0  0  0  0
  2  8  1  0  0  0  0
  2  9  1  0  0  0  0
  3 10  1  0  0  0  0
  3 11  1  0  0  0  0
  3 12  1  0  0  0  0
M  END
$$$$
