2_chloroaniline
  -OEChem-10241310023D

 14 14  0     0  0  0  0  0  0999 V2000
    1.8846   -1.0376   -0.1090 C   0  0  0  0  0  0  0  0  0  0  0  0
    0.8176   -0.4410    0.5626 C   0  0  0  0  0  0  0  0  0  0  0  0
    2.9348   -1.6038    0.6137 C   0  0  0  0  0  0  0  0  0  0  0  0
    0.8008   -0.4105    1.9570 C   0  0  0  0  0  0  0  0  0  0  0  0
    2.9180   -1.5734    2.0082 C   0  0  0  0  0  0  0  0  0  0  0  0
    1.8509   -0.9767    2.6799 C   0  0  0  0  0  0  0  0  0  0  0  0
    3.9967   -2.1544    2.7123 N   0  0  0  0  0  0  0  0  0  0  0  0
    1.7900   -0.9168    4.4052 Cl  0  0  0  0  0  0  0  0  0  0  0  0
    1.8975   -1.0613   -1.1947 H   0  0  0  0  0  0  0  0  0  0  0  0
   -0.0001   -0.0003   -0.0001 H   0  0  0  0  0  0  0  0  0  0  0  0
    3.7608   -2.0655    0.0787 H   0  0  0  0  0  0  0  0  0  0  0  0
   -0.0383    0.0582    2.4651 H   0  0  0  0  0  0  0  0  0  0  0  0
    4.5495   -2.8536    2.2620 H   0  0  0  0  0  0  0  0  0  0  0  0
    4.1272   -1.9245    3.6753 H   0  0  0  0  0  0  0  0  0  0  0  0
  1  2  1  0  0  0  0
  1  3  2  0  0  0  0
  2  4  2  0  0  0  0
  3  5  1  0  0  0  0
  4  6  1  0  0  0  0
  5  6  2  0  0  0  0
  5  7  1  0  0  0  0
  6  8  1  0  0  0  0
  1  9  1  0  0  0  0
  2 10  1  0  0  0  0
  3 11  1  0  0  0  0
  4 12  1  0  0  0  0
  7 13  1  0  0  0  0
  7 14  1  0  0  0  0
M  END
$$$$
