butanoic_acid
  -OEChem-10241310033D

 14 13  0     0  0  0  0  0  0999 V2000
    0.3282    0.2592    3.5153 C   0  0  0  0  0  0  0  0  0  0  0  0
   -1.2615   -1.9835    0.7852 C   0  0  0  0  0  0  0  0  0  0  0  0
   -0.7524   -0.3453    2.6537 C   0  0  0  0  0  0  0  0  0  0  0  0
   -0.1903   -1.3680    1.6737 C   0  0  0  0  0  0  0  0  0  0  0  0
    1.5220    0.0259    3.3744 O   0  0  0  0  0  0  0  0  0  0  0  0
   -0.1577    1.1129    4.4497 O   0  0  0  0  0  0  0  0  0  0  0  0
   -1.7239   -1.2316    0.1385 H   0  0  0  0  0  0  0  0  0  0  0  0
   -2.0472   -2.4531    1.3855 H   0  0  0  0  0  0  0  0  0  0  0  0
   -0.8213   -2.7525    0.1425 H   0  0  0  0  0  0  0  0  0  0  0  0
   -1.3176    0.4380    2.1369 H   0  0  0  0  0  0  0  0  0  0  0  0
   -1.4650   -0.8311    3.3313 H   0  0  0  0  0  0  0  0  0  0  0  0
    0.2955   -2.1703    2.2412 H   0  0  0  0  0  0  0  0  0  0  0  0
    0.5794   -0.9078    1.0429 H   0  0  0  0  0  0  0  0  0  0  0  0
    0.5155    1.5425    5.0190 H   0  0  0  0  0  0  0  0  0  0  0  0
  1  3  1  0  0  0  0
  1  5  2  0  0  0  0
  1  6  1  0  0  0  0
  2  4  1  0  0  0  0
  3  4  1  0  0  0  0
  2  7  1  0  0  0  0
  2  8  1  0  0  0  0
  2  9  1  0  0  0  0
  3 10  1  0  0  0  0
  3 11  1  0  0  0  0
  4 12  1  0  0  0  0
  4 13  1  0  0  0  0
  6 14  1  0  0  0  0
M  END
$$$$
