diethyl_malonate
  -OEChem-10241310023D

 23 22  0     0  0  0  0  0  0999 V2000
   -1.7484   -1.9701   -0.4566 C   0  0  0  0  0  0  0  0  0  0  0  0
   -3.8574   -3.1506   -1.3112 C   0  0  0  0  0  0  0  0  0  0  0  0
    0.5833   -0.4812    1.9453 C   0  0  0  0  0  0  0  0  0  0  0  0
   -7.1208   -4.8101   -1.1779 C   0  0  0  0  0  0  0  0  0  0  0  0
   -3.0694   -2.6259   -0.1356 C   0  0  0  0  0  0  0  0  0  0  0  0
    0.0899   -0.8910    0.5740 C   0  0  0  0  0  0  0  0  0  0  0  0
   -5.8856   -4.2475   -1.8484 C   0  0  0  0  0  0  0  0  0  0  0  0
   -1.2692   -1.8410   -1.5742 O   0  0  0  0  0  0  0  0  0  0  0  0
   -3.5114   -3.0968   -2.4827 O   0  0  0  0  0  0  0  0  0  0  0  0
   -1.1775   -1.5421    0.7100 O   0  0  0  0  0  0  0  0  0  0  0  0
   -5.0213   -3.6986   -0.8482 O   0  0  0  0  0  0  0  0  0  0  0  0
    1.5528    0.0201    1.8774 H   0  0  0  0  0  0  0  0  0  0  0  0
   -0.1313    0.1945    2.4266 H   0  0  0  0  0  0  0  0  0  0  0  0
    0.6828   -1.3558    2.5968 H   0  0  0  0  0  0  0  0  0  0  0  0
   -7.8047   -5.2381   -1.9160 H   0  0  0  0  0  0  0  0  0  0  0  0
   -6.8482   -5.5871   -0.4562 H   0  0  0  0  0  0  0  0  0  0  0  0
   -7.6471   -4.0283   -0.6203 H   0  0  0  0  0  0  0  0  0  0  0  0
   -2.8659   -3.4727    0.5293 H   0  0  0  0  0  0  0  0  0  0  0  0
   -3.6913   -1.8821    0.3751 H   0  0  0  0  0  0  0  0  0  0  0  0
    0.7938   -1.5845    0.1043 H   0  0  0  0  0  0  0  0  0  0  0  0
   -0.0316   -0.0137   -0.0683 H   0  0  0  0  0  0  0  0  0  0  0  0
   -6.1581   -3.4552   -2.5520 H   0  0  0  0  0  0  0  0  0  0  0  0
   -5.3480   -5.0345   -2.3855 H   0  0  0  0  0  0  0  0  0  0  0  0
  1  5  1  0  0  0  0
  1  8  2  0  0  0  0
  1 10  1  0  0  0  0
  2  5  1  0  0  0  0
  2  9  2  0  0  0  0
  2 11  1  0  0  0  0
  3  6  1  0  0  0  0
  4  7  1  0  0  0  0
  6 10  1  0  0  0  0
  7 11  1  0  0  0  0
  3 12  1  0  0  0  0
  3 13  1  0  0  0  0
  3 14  1  0  0  0  0
  4 15  1  0  0  0  0
  4 16  1  0  0  0  0
  4 17  1  0  0  0  0
  5 18  1  0  0  0  0
  5 19  1  0  0  0  0
  6 20  1  0  0  0  0
  6 21  1  0  0  0  0
  7 22  1  0  0  0  0
  7 23  1  0  0  0  0
M  END
$$$$
