SAMPL4_014
  -OEChem-10241310033D

 25 25  0     1  0  0  0  0  0999 V2000
   -0.6480   -0.7410   -1.1460 C   0  0  0  0  0  0  0  0  0  0  0  0
    0.3450    0.1580   -1.1480 C   0  0  0  0  0  0  0  0  0  0  0  0
   -2.3770   -0.4370    3.4030 C   0  0  0  0  0  0  0  0  0  0  0  0
    0.9300    0.5240   -2.4400 C   0  0  0  0  0  0  0  0  0  0  0  0
   -1.4460   -0.9720    2.5990 C   0  0  0  0  0  0  0  0  0  0  0  0
   -1.3330   -1.1890    0.1150 C   0  0  0  0  0  0  0  0  0  0  0  0
    0.9030    0.7890    0.0920 C   0  0  0  0  0  0  0  0  0  0  0  0
    0.4770    0.0560    1.3690 C   0  0  0  0  0  0  0  0  0  0  0  0
   -1.0150   -0.3010    1.3310 C   0  0  2  0  0  0  0  0  0  0  0  0
   -0.7770   -2.2760    2.9170 C   0  0  0  0  0  0  0  0  0  0  0  0
    1.8410    1.3370   -2.5450 O   0  0  0  0  0  0  0  0  0  0  0  0
   -0.9990   -1.1870   -2.0730 H   0  0  0  0  0  0  0  0  0  0  0  0
   -2.6820   -0.9310    4.3190 H   0  0  0  0  0  0  0  0  0  0  0  0
   -2.8550    0.5070    3.1630 H   0  0  0  0  0  0  0  0  0  0  0  0
    0.4900    0.0160   -3.3140 H   0  0  0  0  0  0  0  0  0  0  0  0
   -2.4170   -1.1930   -0.0540 H   0  0  0  0  0  0  0  0  0  0  0  0
   -1.0400   -2.2300    0.3070 H   0  0  0  0  0  0  0  0  0  0  0  0
    1.9980    0.8100    0.0480 H   0  0  0  0  0  0  0  0  0  0  0  0
    0.5620    1.8300    0.1390 H   0  0  0  0  0  0  0  0  0  0  0  0
    1.0760   -0.8580    1.4800 H   0  0  0  0  0  0  0  0  0  0  0  0
    0.7040    0.6880    2.2370 H   0  0  0  0  0  0  0  0  0  0  0  0
   -1.5910    0.6290    1.2420 H   0  0  0  0  0  0  0  0  0  0  0  0
   -1.3410   -3.1080    2.4830 H   0  0  0  0  0  0  0  0  0  0  0  0
    0.2380   -2.2920    2.5070 H   0  0  0  0  0  0  0  0  0  0  0  0
   -0.7040   -2.4490    3.9960 H   0  0  0  0  0  0  0  0  0  0  0  0
  1  2  2  0  0  0  0
  1  6  1  0  0  0  0
  2  4  1  0  0  0  0
  2  7  1  0  0  0  0
  3  5  2  0  0  0  0
  4 11  2  0  0  0  0
  5  9  1  0  0  0  0
  5 10  1  0  0  0  0
  6  9  1  0  0  0  0
  7  8  1  0  0  0  0
  8  9  1  0  0  0  0
  1 12  1  0  0  0  0
  3 13  1  0  0  0  0
  3 14  1  0  0  0  0
  4 15  1  0  0  0  0
  6 16  1  0  0  0  0
  6 17  1  0  0  0  0
  7 18  1  0  0  0  0
  7 19  1  0  0  0  0
  8 20  1  0  0  0  0
  8 21  1  0  0  0  0
  9 22  1  0  0  0  0
 10 23  1  0  0  0  0
 10 24  1  0  0  0  0
 10 25  1  0  0  0  0
M  END
$$$$
