CUP08029_AM1BCC_v1_0
  -OEChem-10241310043D

 25 27  0     1  0  0  0  0  0999 V2000
   -0.2908   -0.4740   -2.7047 C   0  0  0  0  0  0  0  0  0  0  0  0
   -1.4890   -1.0683   -2.7386 C   0  0  0  0  0  0  0  0  0  0  0  0
   -0.2208    1.0649   -0.1012 C   0  0  0  0  0  0  0  0  0  0  0  0
   -2.8767   -0.2507   -0.1769 C   0  0  0  0  0  0  0  0  0  0  0  0
   -1.1215    1.3945   -1.2952 C   0  0  2  0  0  0  0  0  0  0  0  0
   -2.5389    0.6918   -1.3357 C   0  0  1  0  0  0  0  0  0  0  0  0
   -0.5288    1.0235   -2.6987 C   0  0  2  0  0  0  0  0  0  0  0  0
   -2.5370    0.0277   -2.7560 C   0  0  1  0  0  0  0  0  0  0  0  0
   -1.7851    1.0860   -3.6270 C   0  0  0  0  0  0  0  0  0  0  0  0
   -2.0438    1.2132    3.2250 O   0  0  0  0  0  0  0  0  0  0  0  0
   -0.8090    1.5758    1.0882 O   0  0  0  0  0  0  0  0  0  0  0  0
   -2.9815    0.5001    1.0261 O   0  0  0  0  0  0  0  0  0  0  0  0
   -1.6658    0.5230    1.9526 S   0  0  0  0  0  0  0  0  0  0  0  0
    1.2306   -1.2069   -2.5888 Cl  0  0  0  0  0  0  0  0  0  0  0  0
   -1.8306   -2.7251   -2.6751 Cl  0  0  0  0  0  0  0  0  0  0  0  0
    0.8254    2.0265   -3.1871 Cl  0  0  0  0  0  0  0  0  0  0  0  0
   -4.1307   -0.4314   -3.3286 Cl  0  0  0  0  0  0  0  0  0  0  0  0
   -1.4848    0.5782   -5.3342 Cl  0  0  0  0  0  0  0  0  0  0  0  0
   -2.5800    2.6948   -3.7143 Cl  0  0  0  0  0  0  0  0  0  0  0  0
    0.0053   -0.0042   -0.0120 H   0  0  0  0  0  0  0  0  0  0  0  0
    0.7411    1.5761   -0.2164 H   0  0  0  0  0  0  0  0  0  0  0  0
   -3.8599   -0.7026   -0.3476 H   0  0  0  0  0  0  0  0  0  0  0  0
   -2.1680   -1.0809   -0.0738 H   0  0  0  0  0  0  0  0  0  0  0  0
   -1.3090    2.4772   -1.2507 H   0  0  0  0  0  0  0  0  0  0  0  0
   -3.2889    1.4956   -1.3073 H   0  0  0  0  0  0  0  0  0  0  0  0
  1  2  2  0  0  0  0
  1  7  1  0  0  0  0
  1 14  1  0  0  0  0
  2  8  1  0  0  0  0
  2 15  1  0  0  0  0
  3  5  1  0  0  0  0
  3 11  1  0  0  0  0
  4  6  1  0  0  0  0
  4 12  1  0  0  0  0
  5  6  1  0  0  0  0
  5  7  1  0  0  0  0
  6  8  1  0  0  0  0
  7  9  1  0  0  0  0
  7 16  1  0  0  0  0
  8  9  1  0  0  0  0
  8 17  1  0  0  0  0
  9 18  1  0  0  0  0
  9 19  1  0  0  0  0
 10 13  2  0  0  0  0
 11 13  1  0  0  0  0
 12 13  1  0  0  0  0
  3 20  1  0  0  0  0
  3 21  1  0  0  0  0
  4 22  1  0  0  0  0
  4 23  1  0  0  0  0
  5 24  1  0  0  0  0
  6 25  1  0  0  0  0
M  END
$$$$
