3_methyl_but_1_ene
  -OEChem-10241310023D

 15 14  0     0  0  0  0  0  0999 V2000
    0.9502   -0.5096    0.1168 C   0  0  0  0  0  0  0  0  0  0  0  0
    1.0894   -1.4836    1.0237 C   0  0  0  0  0  0  0  0  0  0  0  0
    0.3870   -1.7197    3.4007 C   0  0  0  0  0  0  0  0  0  0  0  0
   -0.3339   -3.4146    1.6914 C   0  0  0  0  0  0  0  0  0  0  0  0
   -0.0137   -1.9412    1.9424 C   0  0  0  0  0  0  0  0  0  0  0  0
    1.7708   -0.2103   -0.5257 H   0  0  0  0  0  0  0  0  0  0  0  0
    0.0025    0.0058    0.0059 H   0  0  0  0  0  0  0  0  0  0  0  0
    2.0543   -1.9783    1.1080 H   0  0  0  0  0  0  0  0  0  0  0  0
   -0.4211   -2.0250    4.0742 H   0  0  0  0  0  0  0  0  0  0  0  0
    0.5994   -0.6620    3.5929 H   0  0  0  0  0  0  0  0  0  0  0  0
    1.2809   -2.2963    3.6654 H   0  0  0  0  0  0  0  0  0  0  0  0
    0.5322   -4.0556    1.8917 H   0  0  0  0  0  0  0  0  0  0  0  0
   -1.1540   -3.7472    2.3367 H   0  0  0  0  0  0  0  0  0  0  0  0
   -0.6406   -3.5780    0.6522 H   0  0  0  0  0  0  0  0  0  0  0  0
   -0.9243   -1.3595    1.7496 H   0  0  0  0  0  0  0  0  0  0  0  0
  1  2  2  0  0  0  0
  2  5  1  0  0  0  0
  3  5  1  0  0  0  0
  4  5  1  0  0  0  0
  1  6  1  0  0  0  0
  1  7  1  0  0  0  0
  2  8  1  0  0  0  0
  3  9  1  0  0  0  0
  3 10  1  0  0  0  0
  3 11  1  0  0  0  0
  4 12  1  0  0  0  0
  4 13  1  0  0  0  0
  4 14  1  0  0  0  0
  5 15  1  0  0  0  0
M  END
$$$$
