1_chlorobutane
  -OEChem-10241310033D

 14 13  0     0  0  0  0  0  0999 V2000
   -0.1172    0.5383    0.9457 C   0  0  0  0  0  0  0  0  0  0  0  0
    0.5893   -0.2070    2.0669 C   0  0  0  0  0  0  0  0  0  0  0  0
    0.4429    0.5211    3.4031 C   0  0  0  0  0  0  0  0  0  0  0  0
    1.1235   -0.2515    4.5254 C   0  0  0  0  0  0  0  0  0  0  0  0
    0.9565    0.6185    6.0677 Cl  0  0  0  0  0  0  0  0  0  0  0  0
    0.2994    1.5426    0.8189 H   0  0  0  0  0  0  0  0  0  0  0  0
    0.0000    0.0000    0.0000 H   0  0  0  0  0  0  0  0  0  0  0  0
   -1.1880    0.6338    1.1519 H   0  0  0  0  0  0  0  0  0  0  0  0
    1.6509   -0.3132    1.8149 H   0  0  0  0  0  0  0  0  0  0  0  0
    0.1717   -1.2176    2.1458 H   0  0  0  0  0  0  0  0  0  0  0  0
    0.8809    1.5238    3.3227 H   0  0  0  0  0  0  0  0  0  0  0  0
   -0.6218    0.6512    3.6335 H   0  0  0  0  0  0  0  0  0  0  0  0
    2.1925   -0.3754    4.3281 H   0  0  0  0  0  0  0  0  0  0  0  0
    0.6749   -1.2413    4.6523 H   0  0  0  0  0  0  0  0  0  0  0  0
  1  2  1  0  0  0  0
  2  3  1  0  0  0  0
  3  4  1  0  0  0  0
  4  5  1  0  0  0  0
  1  6  1  0  0  0  0
  1  7  1  0  0  0  0
  1  8  1  0  0  0  0
  2  9  1  0  0  0  0
  2 10  1  0  0  0  0
  3 11  1  0  0  0  0
  3 12  1  0  0  0  0
  4 13  1  0  0  0  0
  4 14  1  0  0  0  0
M  END
$$$$
