ac3glyc.xyz	      0.0000000
  -OEChem-10241310033D

 29 28  0     0  0  0  0  0  0999 V2000
    1.5004    0.0000    0.0000 C   0  0  0  0  0  0  0  0  0  0  0  0
    6.6413   -3.2578    3.1617 C   0  0  0  0  0  0  0  0  0  0  0  0
    3.0295    0.0275    2.9671 C   0  0  0  0  0  0  0  0  0  0  0  0
    0.0000    0.0000    0.0000 C   0  0  0  0  0  0  0  0  0  0  0  0
    6.8263   -3.4907    4.6340 C   0  0  0  0  0  0  0  0  0  0  0  0
    3.4045    1.3595    3.5474 C   0  0  0  0  0  0  0  0  0  0  0  0
    3.3800   -1.4578    0.0808 C   0  0  0  0  0  0  0  0  0  0  0  0
    5.1860   -2.3751    1.5474 C   0  0  0  0  0  0  0  0  0  0  0  0
    3.8355   -1.6877    1.5166 C   0  0  0  0  0  0  0  0  0  0  0  0
    2.1869    0.9726    0.0000 O   0  0  0  0  0  0  0  0  0  0  0  0
    7.4218   -3.5564    2.3147 O   0  0  0  0  0  0  0  0  0  0  0  0
    1.9990   -0.5378    3.1584 O   0  0  0  0  0  0  0  0  0  0  0  0
    1.9823   -1.2394    0.0114 O   0  0  0  0  0  0  0  0  0  0  0  0
    5.4805   -2.6678    2.9006 O   0  0  0  0  0  0  0  0  0  0  0  0
    3.9950   -0.4460    2.1867 O   0  0  0  0  0  0  0  0  0  0  0  0
   -0.3753   -0.6574   -0.7748 H   0  0  0  0  0  0  0  0  0  0  0  0
   -0.3607    1.0069   -0.1495 H   0  0  0  0  0  0  0  0  0  0  0  0
   -0.3426   -0.3765    0.9574 H   0  0  0  0  0  0  0  0  0  0  0  0
    6.8026   -2.5417    5.1572 H   0  0  0  0  0  0  0  0  0  0  0  0
    6.0123   -4.0975    5.0133 H   0  0  0  0  0  0  0  0  0  0  0  0
    7.7710   -3.9853    4.8040 H   0  0  0  0  0  0  0  0  0  0  0  0
    3.4578    2.0830    2.7417 H   0  0  0  0  0  0  0  0  0  0  0  0
    2.6578    1.6630    4.2662 H   0  0  0  0  0  0  0  0  0  0  0  0
    4.3803    1.3023    4.0142 H   0  0  0  0  0  0  0  0  0  0  0  0
    3.5520   -2.3521   -0.5031 H   0  0  0  0  0  0  0  0  0  0  0  0
    3.9112   -0.6268   -0.3600 H   0  0  0  0  0  0  0  0  0  0  0  0
    5.1553   -3.2966    0.9804 H   0  0  0  0  0  0  0  0  0  0  0  0
    5.9591   -1.7397    1.1354 H   0  0  0  0  0  0  0  0  0  0  0  0
    3.1032   -2.2854    2.0397 H   0  0  0  0  0  0  0  0  0  0  0  0
  1  4  1  0  0  0  0
  1 10  2  0  0  0  0
  1 13  1  0  0  0  0
  2  5  1  0  0  0  0
  2 11  2  0  0  0  0
  2 14  1  0  0  0  0
  3  6  1  0  0  0  0
  3 12  2  0  0  0  0
  3 15  1  0  0  0  0
  7  9  1  0  0  0  0
  7 13  1  0  0  0  0
  8  9  1  0  0  0  0
  8 14  1  0  0  0  0
  9 15  1  0  0  0  0
  4 16  1  0  0  0  0
  4 17  1  0  0  0  0
  4 18  1  0  0  0  0
  5 19  1  0  0  0  0
  5 20  1  0  0  0  0
  5 21  1  0  0  0  0
  6 22  1  0  0  0  0
  6 23  1  0  0  0  0
  6 24  1  0  0  0  0
  7 25  1  0  0  0  0
  7 26  1  0  0  0  0
  8 27  1  0  0  0  0
  8 28  1  0  0  0  0
  9 29  1  0  0  0  0
M  END
$$$$
