diethoxymethoxybenzene
  -OEChem-10241310033D

 30 30  0     0  0  0  0  0  0999 V2000
   -5.3212    3.2310    3.9369 C   0  0  0  0  0  0  0  0  0  0  0  0
   -5.2340    3.1894    2.5455 C   0  0  0  0  0  0  0  0  0  0  0  0
   -4.3029    2.6820    4.7163 C   0  0  0  0  0  0  0  0  0  0  0  0
   -4.1287    2.5987    1.9333 C   0  0  0  0  0  0  0  0  0  0  0  0
   -3.1974    2.0913    4.1042 C   0  0  0  0  0  0  0  0  0  0  0  0
   -3.1163    2.0530    2.7159 C   0  0  0  0  0  0  0  0  0  0  0  0
    1.8365    2.4176   -0.4704 C   0  0  0  0  0  0  0  0  0  0  0  0
   -2.6465   -0.7913   -1.3974 C   0  0  0  0  0  0  0  0  0  0  0  0
    0.3249    2.4998   -0.4716 C   0  0  0  0  0  0  0  0  0  0  0  0
   -1.9455   -0.1271   -0.2315 C   0  0  0  0  0  0  0  0  0  0  0  0
   -1.6086    1.9688    0.8331 C   0  0  0  0  0  0  0  0  0  0  0  0
   -2.0314    1.4740    2.1154 O   0  0  0  0  0  0  0  0  0  0  0  0
   -0.1706    1.9379    0.7371 O   0  0  0  0  0  0  0  0  0  0  0  0
   -2.2391    1.2639   -0.2461 O   0  0  0  0  0  0  0  0  0  0  0  0
   -6.1827    3.6892    4.4139 H   0  0  0  0  0  0  0  0  0  0  0  0
   -6.0265    3.6175    1.9385 H   0  0  0  0  0  0  0  0  0  0  0  0
   -4.3710    2.7144    5.7998 H   0  0  0  0  0  0  0  0  0  0  0  0
   -4.0660    2.5701    0.8489 H   0  0  0  0  0  0  0  0  0  0  0  0
   -2.4072    1.6658    4.7166 H   0  0  0  0  0  0  0  0  0  0  0  0
    2.2511    2.8419   -1.3890 H   0  0  0  0  0  0  0  0  0  0  0  0
    2.2517    2.9571    0.3871 H   0  0  0  0  0  0  0  0  0  0  0  0
    2.1662    1.3771   -0.3817 H   0  0  0  0  0  0  0  0  0  0  0  0
   -2.4406   -1.8651   -1.4161 H   0  0  0  0  0  0  0  0  0  0  0  0
   -3.7291   -0.6399   -1.3339 H   0  0  0  0  0  0  0  0  0  0  0  0
   -2.3188   -0.3522   -2.3455 H   0  0  0  0  0  0  0  0  0  0  0  0
   -0.0892    1.9406   -1.3159 H   0  0  0  0  0  0  0  0  0  0  0  0
   -0.0030    3.5416   -0.5364 H   0  0  0  0  0  0  0  0  0  0  0  0
   -0.8622   -0.2595   -0.3092 H   0  0  0  0  0  0  0  0  0  0  0  0
   -2.2913   -0.5505    0.7162 H   0  0  0  0  0  0  0  0  0  0  0  0
   -1.8654    3.0342    0.7774 H   0  0  0  0  0  0  0  0  0  0  0  0
  1  2  1  0  0  0  0
  1  3  2  0  0  0  0
  2  4  2  0  0  0  0
  3  5  1  0  0  0  0
  4  6  1  0  0  0  0
  5  6  2  0  0  0  0
  6 12  1  0  0  0  0
  7  9  1  0  0  0  0
  8 10  1  0  0  0  0
  9 13  1  0  0  0  0
 10 14  1  0  0  0  0
 11 12  1  0  0  0  0
 11 13  1  0  0  0  0
 11 14  1  0  0  0  0
  1 15  1  0  0  0  0
  2 16  1  0  0  0  0
  3 17  1  0  0  0  0
  4 18  1  0  0  0  0
  5 19  1  0  0  0  0
  7 20  1  0  0  0  0
  7 21  1  0  0  0  0
  7 22  1  0  0  0  0
  8 23  1  0  0  0  0
  8 24  1  0  0  0  0
  8 25  1  0  0  0  0
  9 26  1  0  0  0  0
  9 27  1  0  0  0  0
 10 28  1  0  0  0  0
 10 29  1  0  0  0  0
 11 30  1  0  0  0  0
M  END
$$$$
