2_methylpent_1_ene
  -OEChem-10241310023D

 18 17  0     0  0  0  0  0  0999 V2000
    0.5823    0.4188    0.8432 C   0  0  0  0  0  0  0  0  0  0  0  0
   -0.0603    0.9915    1.8730 C   0  0  0  0  0  0  0  0  0  0  0  0
   -1.5343    0.7948    2.0825 C   0  0  0  0  0  0  0  0  0  0  0  0
    0.8970    4.0809    4.0049 C   0  0  0  0  0  0  0  0  0  0  0  0
    0.6737    1.8302    2.8922 C   0  0  0  0  0  0  0  0  0  0  0  0
    0.1244    3.2556    2.9869 C   0  0  0  0  0  0  0  0  0  0  0  0
    1.6472    0.5609    0.6920 H   0  0  0  0  0  0  0  0  0  0  0  0
    0.0587   -0.2082    0.1290 H   0  0  0  0  0  0  0  0  0  0  0  0
   -1.7240    0.3729    3.0748 H   0  0  0  0  0  0  0  0  0  0  0  0
   -2.0673    1.7469    2.0007 H   0  0  0  0  0  0  0  0  0  0  0  0
   -1.9665    0.1101    1.3447 H   0  0  0  0  0  0  0  0  0  0  0  0
    1.9535    4.1569    3.7282 H   0  0  0  0  0  0  0  0  0  0  0  0
    0.8336    3.6333    5.0018 H   0  0  0  0  0  0  0  0  0  0  0  0
    0.4871    5.0943    4.0606 H   0  0  0  0  0  0  0  0  0  0  0  0
    1.7426    1.8743    2.6450 H   0  0  0  0  0  0  0  0  0  0  0  0
    0.6112    1.3382    3.8711 H   0  0  0  0  0  0  0  0  0  0  0  0
   -0.9324    3.2392    3.2766 H   0  0  0  0  0  0  0  0  0  0  0  0
    0.1838    3.7468    2.0081 H   0  0  0  0  0  0  0  0  0  0  0  0
  1  2  2  0  0  0  0
  2  3  1  0  0  0  0
  2  5  1  0  0  0  0
  4  6  1  0  0  0  0
  5  6  1  0  0  0  0
  1  7  1  0  0  0  0
  1  8  1  0  0  0  0
  3  9  1  0  0  0  0
  3 10  1  0  0  0  0
  3 11  1  0  0  0  0
  4 12  1  0  0  0  0
  4 13  1  0  0  0  0
  4 14  1  0  0  0  0
  5 15  1  0  0  0  0
  5 16  1  0  0  0  0
  6 17  1  0  0  0  0
  6 18  1  0  0  0  0
M  END
$$$$
