1_bromo_2_chloroethane
  -OEChem-10241310033D

  8  7  0     0  0  0  0  0  0999 V2000
    0.6105   -0.7416    0.5250 C   0  0  0  0  0  0  0  0  0  0  0  0
    1.1169   -1.8117   -0.4165 C   0  0  0  0  0  0  0  0  0  0  0  0
   -0.3995   -1.4721    1.7931 Cl  0  0  0  0  0  0  0  0  0  0  0  0
    2.1691   -0.9870   -1.8325 Br  0  0  0  0  0  0  0  0  0  0  0  0
    1.4347   -0.2164    1.0180 H   0  0  0  0  0  0  0  0  0  0  0  0
    0.0000   -0.0000    0.0000 H   0  0  0  0  0  0  0  0  0  0  0  0
    0.3023   -2.3501   -0.9088 H   0  0  0  0  0  0  0  0  0  0  0  0
    1.7767   -2.5258    0.0842 H   0  0  0  0  0  0  0  0  0  0  0  0
  1  2  1  0  0  0  0
  1  3  1  0  0  0  0
  2  4  1  0  0  0  0
  1  5  1  0  0  0  0
  1  6  1  0  0  0  0
  2  7  1  0  0  0  0
  2  8  1  0  0  0  0
M  END
$$$$
