n_hexylamine
  -OEChem-10241310033D

 22 21  0     0  0  0  0  0  0999 V2000
    1.1229   -0.0646   -0.2433 C   0  0  0  0  0  0  0  0  0  0  0  0
    1.6713    1.3413   -0.4294 C   0  0  0  0  0  0  0  0  0  0  0  0
    0.9806    2.0634   -1.5873 C   0  0  0  0  0  0  0  0  0  0  0  0
    1.5594    3.4656   -1.7892 C   0  0  0  0  0  0  0  0  0  0  0  0
    0.8547    4.2624   -2.8917 C   0  0  0  0  0  0  0  0  0  0  0  0
    1.4521    5.6523   -3.1083 C   0  0  0  0  0  0  0  0  0  0  0  0
    0.7363    6.3467   -4.1734 N   0  0  0  0  0  0  0  0  0  0  0  0
    1.6291   -0.5615    0.5902 H   0  0  0  0  0  0  0  0  0  0  0  0
    0.0506   -0.0418   -0.0246 H   0  0  0  0  0  0  0  0  0  0  0  0
    1.2777   -0.6683   -1.1432 H   0  0  0  0  0  0  0  0  0  0  0  0
    1.5318    1.9069    0.4992 H   0  0  0  0  0  0  0  0  0  0  0  0
    2.7500    1.2849   -0.6164 H   0  0  0  0  0  0  0  0  0  0  0  0
   -0.0950    2.1349   -1.3856 H   0  0  0  0  0  0  0  0  0  0  0  0
    1.1016    1.4712   -2.5011 H   0  0  0  0  0  0  0  0  0  0  0  0
    2.6308    3.3958   -2.0134 H   0  0  0  0  0  0  0  0  0  0  0  0
    1.4694    4.0280   -0.8514 H   0  0  0  0  0  0  0  0  0  0  0  0
   -0.2027    4.3630   -2.6141 H   0  0  0  0  0  0  0  0  0  0  0  0
    0.8810    3.6915   -3.8285 H   0  0  0  0  0  0  0  0  0  0  0  0
    1.3805    6.2413   -2.1879 H   0  0  0  0  0  0  0  0  0  0  0  0
    2.5094    5.5827   -3.3816 H   0  0  0  0  0  0  0  0  0  0  0  0
   -0.2347    6.0446   -4.1720 H   0  0  0  0  0  0  0  0  0  0  0  0
    1.1245    6.0672   -5.0707 H   0  0  0  0  0  0  0  0  0  0  0  0
  1  2  1  0  0  0  0
  2  3  1  0  0  0  0
  3  4  1  0  0  0  0
  4  5  1  0  0  0  0
  5  6  1  0  0  0  0
  6  7  1  0  0  0  0
  1  8  1  0  0  0  0
  1  9  1  0  0  0  0
  1 10  1  0  0  0  0
  2 11  1  0  0  0  0
  2 12  1  0  0  0  0
  3 13  1  0  0  0  0
  3 14  1  0  0  0  0
  4 15  1  0  0  0  0
  4 16  1  0  0  0  0
  5 17  1  0  0  0  0
  5 18  1  0  0  0  0
  6 19  1  0  0  0  0
  6 20  1  0  0  0  0
  7 21  1  0  0  0  0
  7 22  1  0  0  0  0
M  END
$$$$
