1,2,3,4,7-pentachlorodibenzo-p-dioxin
  -OEChem-10241310033D

 22 24  0     0  0  0  0  0  0999 V2000
   -3.1487    0.4152    1.2196 C   0  0  0  0  0  0  0  0  0  0  0  0
   -1.8584    0.7400    0.8000 C   0  0  0  0  0  0  0  0  0  0  0  0
   -1.4367   -1.5819    0.2693 C   0  0  0  0  0  0  0  0  0  0  0  0
   -3.5799   -0.9097    1.1626 C   0  0  0  0  0  0  0  0  0  0  0  0
   -2.7266   -1.9051    0.6889 C   0  0  0  0  0  0  0  0  0  0  0  0
   -5.2389   -2.4982    1.5123 C   0  0  0  0  0  0  0  0  0  0  0  0
   -4.3856   -3.4936    1.0385 C   0  0  0  0  0  0  0  0  0  0  0  0
   -1.0039   -0.2568    0.3257 C   0  0  0  0  0  0  0  0  0  0  0  0
   -6.5287   -2.8214    1.9320 C   0  0  0  0  0  0  0  0  0  0  0  0
   -4.8168   -4.8184    0.9815 C   0  0  0  0  0  0  0  0  0  0  0  0
   -6.9616   -4.1465    1.8755 C   0  0  0  0  0  0  0  0  0  0  0  0
   -6.1071   -5.1433    1.4010 C   0  0  0  0  0  0  0  0  0  0  0  0
   -4.8561   -1.1828    1.5855 O   0  0  0  0  0  0  0  0  0  0  0  0
   -3.1093   -3.2205    0.6157 O   0  0  0  0  0  0  0  0  0  0  0  0
    0.5873    0.1498   -0.1892 Cl  0  0  0  0  0  0  0  0  0  0  0  0
   -7.5646   -1.5539    2.5157 Cl  0  0  0  0  0  0  0  0  0  0  0  0
   -3.7251   -6.0323    0.3860 Cl  0  0  0  0  0  0  0  0  0  0  0  0
   -8.5730   -4.5509    2.4000 Cl  0  0  0  0  0  0  0  0  0  0  0  0
   -6.6456   -6.7988    1.3317 Cl  0  0  0  0  0  0  0  0  0  0  0  0
   -3.8085    1.1959    1.5876 H   0  0  0  0  0  0  0  0  0  0  0  0
   -1.5313    1.7756    0.8483 H   0  0  0  0  0  0  0  0  0  0  0  0
   -0.7767   -2.3637   -0.0989 H   0  0  0  0  0  0  0  0  0  0  0  0
  1  2  2  0  0  0  0
  1  4  1  0  0  0  0
  2  8  1  0  0  0  0
  3  5  1  0  0  0  0
  3  8  2  0  0  0  0
  4  5  2  0  0  0  0
  4 13  1  0  0  0  0
  5 14  1  0  0  0  0
  6  7  2  0  0  0  0
  6  9  1  0  0  0  0
  6 13  1  0  0  0  0
  7 10  1  0  0  0  0
  7 14  1  0  0  0  0
  8 15  1  0  0  0  0
  9 11  2  0  0  0  0
  9 16  1  0  0  0  0
 10 12  2  0  0  0  0
 10 17  1  0  0  0  0
 11 12  1  0  0  0  0
 11 18  1  0  0  0  0
 12 19  1  0  0  0  0
  1 20  1  0  0  0  0
  2 21  1  0  0  0  0
  3 22  1  0  0  0  0
M  END
$$$$
