methanol@0
  -OEChem-10241310023D

  6  5  0     0  0  0  0  0  0999 V2000
    0.2832    0.7683    0.7237 C   0  0  0  0  0  0  0  0  0  0  0  0
   -0.3115    2.0010    0.3618 O   0  0  0  0  0  0  0  0  0  0  0  0
    1.3700    0.8797    0.7463 H   0  0  0  0  0  0  0  0  0  0  0  0
   -0.0001   -0.0002    0.0003 H   0  0  0  0  0  0  0  0  0  0  0  0
   -0.0720    0.4801    1.7159 H   0  0  0  0  0  0  0  0  0  0  0  0
    0.0222    2.2307   -0.5221 H   0  0  0  0  0  0  0  0  0  0  0  0
  1  2  1  0  0  0  0
  1  3  1  0  0  0  0
  1  4  1  0  0  0  0
  1  5  1  0  0  0  0
  2  6  1  0  0  0  0
M  END
$$$$
