CUP08004_AM1BCC_v1_0
  -OEChem-10241310033D

 17 16  0     1  0  0  0  0  0999 V2000
    0.9955   -0.0741   -0.2702 C   0  0  0  0  0  0  0  0  0  0  0  0
    1.1102    0.9440   -4.0077 C   0  0  0  0  0  0  0  0  0  0  0  0
    1.3769    0.6953   -1.5287 C   0  0  0  0  0  0  0  0  0  0  0  0
    0.6335    0.1806   -2.7726 C   0  0  1  0  0  0  0  0  0  0  0  0
   -1.6141   -0.4535   -3.2795 N   0  3  0  0  0  0  0  0  0  0  0  0
   -2.8043   -0.2330   -3.0633 O   0  5  0  0  0  0  0  0  0  0  0  0
   -1.0894   -1.2996   -4.0041 O   0  0  0  0  0  0  0  0  0  0  0  0
   -0.7602    0.4270   -2.5720 O   0  0  0  0  0  0  0  0  0  0  0  0
   -0.0688    0.0375   -0.0410 H   0  0  0  0  0  0  0  0  0  0  0  0
    1.5647    0.2999    0.5868 H   0  0  0  0  0  0  0  0  0  0  0  0
    1.2138   -1.1408   -0.3827 H   0  0  0  0  0  0  0  0  0  0  0  0
    0.8899    2.0134   -3.9152 H   0  0  0  0  0  0  0  0  0  0  0  0
    2.1871    0.8198   -4.1585 H   0  0  0  0  0  0  0  0  0  0  0  0
    0.5963    0.5964   -4.9095 H   0  0  0  0  0  0  0  0  0  0  0  0
    2.4595    0.6128   -1.6804 H   0  0  0  0  0  0  0  0  0  0  0  0
    1.1444    1.7549   -1.3654 H   0  0  0  0  0  0  0  0  0  0  0  0
    0.8597   -0.8885   -2.8731 H   0  0  0  0  0  0  0  0  0  0  0  0
  1  3  1  0  0  0  0
  2  4  1  0  0  0  0
  3  4  1  0  0  0  0
  4  8  1  0  0  0  0
  5  6  1  0  0  0  0
  5  7  2  0  0  0  0
  5  8  1  0  0  0  0
  1  9  1  0  0  0  0
  1 10  1  0  0  0  0
  1 11  1  0  0  0  0
  2 12  1  0  0  0  0
  2 13  1  0  0  0  0
  2 14  1  0  0  0  0
  3 15  1  0  0  0  0
  3 16  1  0  0  0  0
  4 17  1  0  0  0  0
M  CHG  2   5   1   6  -1
M  END
$$$$
