di_n_butyl_ether
  -OEChem-10241310023D

 27 26  0     0  0  0  0  0  0999 V2000
    0.7086   -2.2896   -0.7882 C   0  0  0  0  0  0  0  0  0  0  0  0
   -9.0252   -3.4077   -0.2397 C   0  0  0  0  0  0  0  0  0  0  0  0
   -0.4175   -2.6603    0.1635 C   0  0  0  0  0  0  0  0  0  0  0  0
   -7.7408   -3.5570    0.5598 C   0  0  0  0  0  0  0  0  0  0  0  0
   -1.7782   -2.5830   -0.5230 C   0  0  0  0  0  0  0  0  0  0  0  0
   -6.5174   -3.1834   -0.2724 C   0  0  0  0  0  0  0  0  0  0  0  0
   -2.9047   -2.9950    0.4140 C   0  0  0  0  0  0  0  0  0  0  0  0
   -5.2329   -3.2900    0.5372 C   0  0  0  0  0  0  0  0  0  0  0  0
   -4.1377   -2.9159   -0.2877 O   0  0  0  0  0  0  0  0  0  0  0  0
    0.7349   -2.9671   -1.6478 H   0  0  0  0  0  0  0  0  0  0  0  0
    0.5874   -1.2672   -1.1600 H   0  0  0  0  0  0  0  0  0  0  0  0
    1.6738   -2.3528   -0.2763 H   0  0  0  0  0  0  0  0  0  0  0  0
   -9.1597   -2.3750   -0.5770 H   0  0  0  0  0  0  0  0  0  0  0  0
   -9.0172   -4.0585   -1.1199 H   0  0  0  0  0  0  0  0  0  0  0  0
   -9.8885   -3.6793    0.3757 H   0  0  0  0  0  0  0  0  0  0  0  0
   -0.2487   -3.6751    0.5423 H   0  0  0  0  0  0  0  0  0  0  0  0
   -0.3963   -1.9842    1.0261 H   0  0  0  0  0  0  0  0  0  0  0  0
   -7.7948   -2.9189    1.4495 H   0  0  0  0  0  0  0  0  0  0  0  0
   -7.6525   -4.5926    0.9081 H   0  0  0  0  0  0  0  0  0  0  0  0
   -1.9628   -1.5647   -0.8872 H   0  0  0  0  0  0  0  0  0  0  0  0
   -1.7920   -3.2259   -1.4121 H   0  0  0  0  0  0  0  0  0  0  0  0
   -6.4455   -3.8317   -1.1546 H   0  0  0  0  0  0  0  0  0  0  0  0
   -6.6190   -2.1617   -0.6594 H   0  0  0  0  0  0  0  0  0  0  0  0
   -2.7673   -4.0239    0.7614 H   0  0  0  0  0  0  0  0  0  0  0  0
   -2.9546   -2.3293    1.2816 H   0  0  0  0  0  0  0  0  0  0  0  0
   -5.2606   -2.6214    1.4035 H   0  0  0  0  0  0  0  0  0  0  0  0
   -5.0732   -4.3161    0.8835 H   0  0  0  0  0  0  0  0  0  0  0  0
  1  3  1  0  0  0  0
  2  4  1  0  0  0  0
  3  5  1  0  0  0  0
  4  6  1  0  0  0  0
  5  7  1  0  0  0  0
  6  8  1  0  0  0  0
  7  9  1  0  0  0  0
  8  9  1  0  0  0  0
  1 10  1  0  0  0  0
  1 11  1  0  0  0  0
  1 12  1  0  0  0  0
  2 13  1  0  0  0  0
  2 14  1  0  0  0  0
  2 15  1  0  0  0  0
  3 16  1  0  0  0  0
  3 17  1  0  0  0  0
  4 18  1  0  0  0  0
  4 19  1  0  0  0  0
  5 20  1  0  0  0  0
  5 21  1  0  0  0  0
  6 22  1  0  0  0  0
  6 23  1  0  0  0  0
  7 24  1  0  0  0  0
  7 25  1  0  0  0  0
  8 26  1  0  0  0  0
  8 27  1  0  0  0  0
M  END
$$$$
