aniline
  -OEChem-10241310033D

 14 14  0     0  0  0  0  0  0999 V2000
    1.8846   -1.0376   -0.1090 C   0  0  0  0  0  0  0  0  0  0  0  0
    0.8176   -0.4410    0.5626 C   0  0  0  0  0  0  0  0  0  0  0  0
    2.9348   -1.6038    0.6137 C   0  0  0  0  0  0  0  0  0  0  0  0
    0.8008   -0.4105    1.9570 C   0  0  0  0  0  0  0  0  0  0  0  0
    2.9180   -1.5734    2.0082 C   0  0  0  0  0  0  0  0  0  0  0  0
    1.8509   -0.9767    2.6799 C   0  0  0  0  0  0  0  0  0  0  0  0
    1.8337   -0.9465    4.0899 N   0  0  0  0  0  0  0  0  0  0  0  0
    1.8974   -1.0609   -1.1947 H   0  0  0  0  0  0  0  0  0  0  0  0
    0.0001   -0.0003   -0.0006 H   0  0  0  0  0  0  0  0  0  0  0  0
    3.7655   -2.0684    0.0912 H   0  0  0  0  0  0  0  0  0  0  0  0
   -0.0360    0.0562    2.4705 H   0  0  0  0  0  0  0  0  0  0  0  0
    3.7416   -2.0175    2.5613 H   0  0  0  0  0  0  0  0  0  0  0  0
    2.4330   -1.5646    4.5985 H   0  0  0  0  0  0  0  0  0  0  0  0
    1.1574   -0.3771    4.5572 H   0  0  0  0  0  0  0  0  0  0  0  0
  1  2  1  0  0  0  0
  1  3  2  0  0  0  0
  2  4  2  0  0  0  0
  3  5  1  0  0  0  0
  4  6  1  0  0  0  0
  5  6  2  0  0  0  0
  6  7  1  0  0  0  0
  1  8  1  0  0  0  0
  2  9  1  0  0  0  0
  3 10  1  0  0  0  0
  4 11  1  0  0  0  0
  5 12  1  0  0  0  0
  7 13  1  0  0  0  0
  7 14  1  0  0  0  0
M  END
$$$$
