23_dimethylbutane
  -OEChem-10241310033D

 20 19  0     0  0  0  0  0  0999 V2000
    0.5108   -0.7952    0.5544 C   0  0  0  0  0  0  0  0  0  0  0  0
    0.2493    0.5315    2.6603 C   0  0  0  0  0  0  0  0  0  0  0  0
    1.2273   -2.3856    3.1709 C   0  0  0  0  0  0  0  0  0  0  0  0
    3.2006   -1.8542    1.7262 C   0  0  0  0  0  0  0  0  0  0  0  0
    1.2455   -0.2135    1.7653 C   0  0  0  0  0  0  0  0  0  0  0  0
    2.0681   -1.2569    2.5683 C   0  0  0  0  0  0  0  0  0  0  0  0
   -0.2471   -1.5264    0.8518 H   0  0  0  0  0  0  0  0  0  0  0  0
    0.0000    0.0000   -0.0000 H   0  0  0  0  0  0  0  0  0  0  0  0
    1.2025   -1.2797   -0.1406 H   0  0  0  0  0  0  0  0  0  0  0  0
   -0.2113    1.3612    2.1127 H   0  0  0  0  0  0  0  0  0  0  0  0
   -0.5571   -0.1227    3.0058 H   0  0  0  0  0  0  0  0  0  0  0  0
    0.7505    0.9525    3.5379 H   0  0  0  0  0  0  0  0  0  0  0  0
    0.4483   -1.9966    3.8329 H   0  0  0  0  0  0  0  0  0  0  0  0
    0.7494   -2.9943    2.3969 H   0  0  0  0  0  0  0  0  0  0  0  0
    1.8574   -3.0526    3.7703 H   0  0  0  0  0  0  0  0  0  0  0  0
    2.8192   -2.4901    0.9210 H   0  0  0  0  0  0  0  0  0  0  0  0
    3.8574   -2.4706    2.3500 H   0  0  0  0  0  0  0  0  0  0  0  0
    3.8143   -1.0649    1.2798 H   0  0  0  0  0  0  0  0  0  0  0  0
    1.9519    0.5380    1.3867 H   0  0  0  0  0  0  0  0  0  0  0  0
    2.5440   -0.7248    3.4034 H   0  0  0  0  0  0  0  0  0  0  0  0
  1  5  1  0  0  0  0
  2  5  1  0  0  0  0
  3  6  1  0  0  0  0
  4  6  1  0  0  0  0
  5  6  1  0  0  0  0
  1  7  1  0  0  0  0
  1  8  1  0  0  0  0
  1  9  1  0  0  0  0
  2 10  1  0  0  0  0
  2 11  1  0  0  0  0
  2 12  1  0  0  0  0
  3 13  1  0  0  0  0
  3 14  1  0  0  0  0
  3 15  1  0  0  0  0
  4 16  1  0  0  0  0
  4 17  1  0  0  0  0
  4 18  1  0  0  0  0
  5 19  1  0  0  0  0
  6 20  1  0  0  0  0
M  END
$$$$
