cyclopentanone
  -OEChem-10241310033D

 14 14  0     0  0  0  0  0  0999 V2000
   -1.1818   -1.5417    0.9429 C   0  0  0  0  0  0  0  0  0  0  0  0
   -0.1043   -0.4890    0.9707 C   0  0  0  0  0  0  0  0  0  0  0  0
   -0.7180   -2.8480    1.5333 C   0  0  0  0  0  0  0  0  0  0  0  0
    1.1263   -1.3137    1.3262 C   0  0  0  0  0  0  0  0  0  0  0  0
    0.5903   -2.4404    2.1989 C   0  0  0  0  0  0  0  0  0  0  0  0
   -2.3050   -1.3570    0.4920 O   0  0  0  0  0  0  0  0  0  0  0  0
   -0.0001    0.0005    0.0004 H   0  0  0  0  0  0  0  0  0  0  0  0
   -0.3379    0.2392    1.7525 H   0  0  0  0  0  0  0  0  0  0  0  0
   -1.4385   -3.2367    2.2560 H   0  0  0  0  0  0  0  0  0  0  0  0
   -0.5492   -3.5641    0.7242 H   0  0  0  0  0  0  0  0  0  0  0  0
    1.5760   -1.7289    0.4160 H   0  0  0  0  0  0  0  0  0  0  0  0
    1.8877   -0.7175    1.8372 H   0  0  0  0  0  0  0  0  0  0  0  0
    0.3964   -2.0673    3.2122 H   0  0  0  0  0  0  0  0  0  0  0  0
    1.2912   -3.2769    2.2760 H   0  0  0  0  0  0  0  0  0  0  0  0
  1  2  1  0  0  0  0
  1  3  1  0  0  0  0
  1  6  2  0  0  0  0
  2  4  1  0  0  0  0
  3  5  1  0  0  0  0
  4  5  1  0  0  0  0
  2  7  1  0  0  0  0
  2  8  1  0  0  0  0
  3  9  1  0  0  0  0
  3 10  1  0  0  0  0
  4 11  1  0  0  0  0
  4 12  1  0  0  0  0
  5 13  1  0  0  0  0
  5 14  1  0  0  0  0
M  END
$$$$
