CUP08044_AM1BCC_v1_0
  -OEChem-10241310023D

 34 33  0     0  0  0  0  0  0999 V2000
   -0.8340   -1.4538    2.5987 C   0  0  0  0  0  0  0  0  0  0  0  0
   -5.2763    2.2909    2.7123 C   0  0  0  0  0  0  0  0  0  0  0  0
   -0.3797   -4.2945    6.9828 C   0  0  0  0  0  0  0  0  0  0  0  0
    0.4584   -0.1390   -0.0857 C   0  0  0  0  0  0  0  0  0  0  0  0
   -3.7562    2.2754    2.6878 C   0  0  0  0  0  0  0  0  0  0  0  0
   -0.8176   -2.9417    6.4404 C   0  0  0  0  0  0  0  0  0  0  0  0
   -3.2176    0.9230    2.2232 C   0  0  0  0  0  0  0  0  0  0  0  0
   -0.9424   -0.5609    0.3300 C   0  0  0  0  0  0  0  0  0  0  0  0
   -1.6877    0.9142    2.1975 C   0  0  0  0  0  0  0  0  0  0  0  0
   -0.6238   -2.8669    4.9279 C   0  0  0  0  0  0  0  0  0  0  0  0
   -1.1584   -0.3849    1.7647 N   0  0  0  0  0  0  0  0  0  0  0  0
   -0.3524   -2.5037    2.1860 O   0  0  0  0  0  0  0  0  0  0  0  0
   -1.1572   -1.2418    4.3157 S   0  0  0  0  0  0  0  0  0  0  0  0
   -5.6652    1.5313    3.3980 H   0  0  0  0  0  0  0  0  0  0  0  0
   -5.6406    3.2677    3.0457 H   0  0  0  0  0  0  0  0  0  0  0  0
   -5.6867    2.0973    1.7160 H   0  0  0  0  0  0  0  0  0  0  0  0
   -0.9619   -5.1047    6.5321 H   0  0  0  0  0  0  0  0  0  0  0  0
    0.6799   -4.4756    6.7762 H   0  0  0  0  0  0  0  0  0  0  0  0
   -0.5257   -4.3332    8.0669 H   0  0  0  0  0  0  0  0  0  0  0  0
    0.6368    0.9167    0.1427 H   0  0  0  0  0  0  0  0  0  0  0  0
    1.2193   -0.7266    0.4384 H   0  0  0  0  0  0  0  0  0  0  0  0
    0.5952   -0.2838   -1.1617 H   0  0  0  0  0  0  0  0  0  0  0  0
   -3.3990    3.0678    2.0200 H   0  0  0  0  0  0  0  0  0  0  0  0
   -3.3782    2.5016    3.6917 H   0  0  0  0  0  0  0  0  0  0  0  0
   -0.2351   -2.1581    6.9400 H   0  0  0  0  0  0  0  0  0  0  0  0
   -1.8719   -2.7842    6.6985 H   0  0  0  0  0  0  0  0  0  0  0  0
   -3.5886    0.1315    2.8849 H   0  0  0  0  0  0  0  0  0  0  0  0
   -3.6045    0.6966    1.2220 H   0  0  0  0  0  0  0  0  0  0  0  0
   -1.0950   -1.6126    0.0621 H   0  0  0  0  0  0  0  0  0  0  0  0
   -1.6934    0.0188   -0.2180 H   0  0  0  0  0  0  0  0  0  0  0  0
   -1.2881    1.1758    3.1818 H   0  0  0  0  0  0  0  0  0  0  0  0
   -1.3173    1.6823    1.5078 H   0  0  0  0  0  0  0  0  0  0  0  0
    0.4319   -3.0179    4.6785 H   0  0  0  0  0  0  0  0  0  0  0  0
   -1.2130   -3.6486    4.4364 H   0  0  0  0  0  0  0  0  0  0  0  0
  1 11  1  0  0  0  0
  1 12  2  0  0  0  0
  1 13  1  0  0  0  0
  2  5  1  0  0  0  0
  3  6  1  0  0  0  0
  4  8  1  0  0  0  0
  5  7  1  0  0  0  0
  6 10  1  0  0  0  0
  7  9  1  0  0  0  0
  8 11  1  0  0  0  0
  9 11  1  0  0  0  0
 10 13  1  0  0  0  0
  2 14  1  0  0  0  0
  2 15  1  0  0  0  0
  2 16  1  0  0  0  0
  3 17  1  0  0  0  0
  3 18  1  0  0  0  0
  3 19  1  0  0  0  0
  4 20  1  0  0  0  0
  4 21  1  0  0  0  0
  4 22  1  0  0  0  0
  5 23  1  0  0  0  0
  5 24  1  0  0  0  0
  6 25  1  0  0  0  0
  6 26  1  0  0  0  0
  7 27  1  0  0  0  0
  7 28  1  0  0  0  0
  8 29  1  0  0  0  0
  8 30  1  0  0  0  0
  9 31  1  0  0  0  0
  9 32  1  0  0  0  0
 10 33  1  0  0  0  0
 10 34  1  0  0  0  0
M  END
$$$$
