N_methyl_N__222_trifluoroethyl__aniline
  -OEChem-10241310023D

 23 23  0     1  0  0  0  0  0999 V2000
    1.8840   -1.0358   -0.1090 C   0  0  0  0  0  0  0  0  0  0  0  0
    2.8267   -0.2762    0.5836 C   0  0  0  0  0  0  0  0  0  0  0  0
    0.9246   -1.7659    0.5927 C   0  0  0  0  0  0  0  0  0  0  0  0
    2.8102   -0.2468    1.9780 C   0  0  0  0  0  0  0  0  0  0  0  0
    0.9080   -1.7364    1.9872 C   0  0  0  0  0  0  0  0  0  0  0  0
    1.8509   -0.9767    2.6799 C   0  0  0  0  0  0  0  0  0  0  0  0
    0.8409   -1.7015    4.8281 C   0  0  0  0  0  0  0  0  0  0  0  0
    2.8173   -0.1711    4.8194 C   0  0  0  0  0  0  0  0  0  0  0  0
    2.3190    1.2389    5.0223 C   0  0  0  0  0  0  0  0  0  0  0  0
    1.8337   -0.9465    4.0899 N   0  0  3  0  0  0  0  0  0  0  0  0
    3.2372    1.9731    5.6894 F   0  0  0  0  0  0  0  0  0  0  0  0
    2.0830    1.8536    3.8438 F   0  0  0  0  0  0  0  0  0  0  0  0
    1.1776    1.2606    5.7429 F   0  0  0  0  0  0  0  0  0  0  0  0
    1.8973   -1.0587   -1.1948 H   0  0  0  0  0  0  0  0  0  0  0  0
    3.5735    0.2921    0.0367 H   0  0  0  0  0  0  0  0  0  0  0  0
    0.1905   -2.3572    0.0538 H   0  0  0  0  0  0  0  0  0  0  0  0
    3.5489    0.3491    2.5080 H   0  0  0  0  0  0  0  0  0  0  0  0
    0.1561   -2.3092    2.5239 H   0  0  0  0  0  0  0  0  0  0  0  0
   -0.1265   -1.1946    4.7833 H   0  0  0  0  0  0  0  0  0  0  0  0
    1.1401   -1.7965    5.8755 H   0  0  0  0  0  0  0  0  0  0  0  0
    0.7336   -2.7027    4.4021 H   0  0  0  0  0  0  0  0  0  0  0  0
    3.0086   -0.6451    5.7870 H   0  0  0  0  0  0  0  0  0  0  0  0
    3.7582   -0.1605    4.2608 H   0  0  0  0  0  0  0  0  0  0  0  0
  1  2  1  0  0  0  0
  1  3  2  0  0  0  0
  2  4  2  0  0  0  0
  3  5  1  0  0  0  0
  4  6  1  0  0  0  0
  5  6  2  0  0  0  0
  6 10  1  0  0  0  0
  7 10  1  0  0  0  0
  8  9  1  0  0  0  0
  8 10  1  0  0  0  0
  9 11  1  0  0  0  0
  9 12  1  0  0  0  0
  9 13  1  0  0  0  0
  1 14  1  0  0  0  0
  2 15  1  0  0  0  0
  3 16  1  0  0  0  0
  4 17  1  0  0  0  0
  5 18  1  0  0  0  0
  7 19  1  0  0  0  0
  7 20  1  0  0  0  0
  7 21  1  0  0  0  0
  8 22  1  0  0  0  0
  8 23  1  0  0  0  0
M  END
$$$$
