CUP08041_AM1BCC_v1_0
  -OEChem-10241310033D

 13 12  0     0  0  0  0  0  0999 V2000
   -1.6927    1.0844   -0.4795 C   0  0  0  0  0  0  0  0  0  0  0  0
   -0.4206    0.3309   -0.7700 C   0  0  0  0  0  0  0  0  0  0  0  0
   -2.8446    0.2605    0.0716 C   0  0  0  0  0  0  0  0  0  0  0  0
   -5.0689    0.3835    0.8087 N   0  3  0  0  0  0  0  0  0  0  0  0
   -1.7727    2.2950   -0.6837 O   0  0  0  0  0  0  0  0  0  0  0  0
   -4.9180   -0.8265    0.9898 O   0  5  0  0  0  0  0  0  0  0  0  0
   -6.0514    1.0937    1.0083 O   0  0  0  0  0  0  0  0  0  0  0  0
   -3.9659    1.0970    0.2952 O   0  0  0  0  0  0  0  0  0  0  0  0
   -0.6149   -0.4409   -1.5188 H   0  0  0  0  0  0  0  0  0  0  0  0
    0.3351    1.0188   -1.1593 H   0  0  0  0  0  0  0  0  0  0  0  0
   -0.0448   -0.1222    0.1506 H   0  0  0  0  0  0  0  0  0  0  0  0
   -2.5042   -0.1868    1.0128 H   0  0  0  0  0  0  0  0  0  0  0  0
   -3.0806   -0.5085   -0.6732 H   0  0  0  0  0  0  0  0  0  0  0  0
  1  2  1  0  0  0  0
  1  3  1  0  0  0  0
  1  5  2  0  0  0  0
  3  8  1  0  0  0  0
  4  6  1  0  0  0  0
  4  7  2  0  0  0  0
  4  8  1  0  0  0  0
  2  9  1  0  0  0  0
  2 10  1  0  0  0  0
  2 11  1  0  0  0  0
  3 12  1  0  0  0  0
  3 13  1  0  0  0  0
M  CHG  2   4   1   6  -1
M  END
$$$$
