13_dichloropropane
  -OEChem-10241310043D

 11 10  0     0  0  0  0  0  0999 V2000
    0.7220   -0.5599   -0.6078 C   0  0  0  0  0  0  0  0  0  0  0  0
    1.8694    0.3695   -0.9976 C   0  0  0  0  0  0  0  0  0  0  0  0
   -0.0268   -1.2071   -1.7706 C   0  0  0  0  0  0  0  0  0  0  0  0
    1.3113    1.7499   -1.9700 Cl  0  0  0  0  0  0  0  0  0  0  0  0
    1.0332   -2.2396   -2.7572 Cl  0  0  0  0  0  0  0  0  0  0  0  0
    1.1211   -1.3485    0.0426 H   0  0  0  0  0  0  0  0  0  0  0  0
   -0.0000    0.0000    0.0000 H   0  0  0  0  0  0  0  0  0  0  0  0
    2.3372    0.7789   -0.0967 H   0  0  0  0  0  0  0  0  0  0  0  0
    2.6434   -0.1525   -1.5669 H   0  0  0  0  0  0  0  0  0  0  0  0
   -0.4807   -0.4623   -2.4301 H   0  0  0  0  0  0  0  0  0  0  0  0
   -0.8290   -1.8445   -1.3855 H   0  0  0  0  0  0  0  0  0  0  0  0
  1  2  1  0  0  0  0
  1  3  1  0  0  0  0
  2  4  1  0  0  0  0
  3  5  1  0  0  0  0
  1  6  1  0  0  0  0
  1  7  1  0  0  0  0
  2  8  1  0  0  0  0
  2  9  1  0  0  0  0
  3 10  1  0  0  0  0
  3 11  1  0  0  0  0
M  END
$$$$
