methyl_octanoate
  -OEChem-10241310033D

 29 28  0     0  0  0  0  0  0999 V2000
    3.3842   -8.3146   -1.2415 C   0  0  0  0  0  0  0  0  0  0  0  0
    0.6181    0.1201   -0.7579 C   0  0  0  0  0  0  0  0  0  0  0  0
    4.2188  -10.5123   -0.9724 C   0  0  0  0  0  0  0  0  0  0  0  0
    3.0544   -7.0607   -0.4620 C   0  0  0  0  0  0  0  0  0  0  0  0
    0.9417   -1.1341   -1.5540 C   0  0  0  0  0  0  0  0  0  0  0  0
    2.5620   -5.9146   -1.3454 C   0  0  0  0  0  0  0  0  0  0  0  0
    1.4908   -2.2417   -0.6552 C   0  0  0  0  0  0  0  0  0  0  0  0
    2.3013   -4.6323   -0.5488 C   0  0  0  0  0  0  0  0  0  0  0  0
    1.7832   -3.5129   -1.4542 C   0  0  0  0  0  0  0  0  0  0  0  0
    3.2867   -8.4365   -2.4549 O   0  0  0  0  0  0  0  0  0  0  0  0
    3.8346   -9.2697   -0.3749 O   0  0  0  0  0  0  0  0  0  0  0  0
    1.5127    0.5134   -0.2646 H   0  0  0  0  0  0  0  0  0  0  0  0
   -0.1355   -0.0854    0.0091 H   0  0  0  0  0  0  0  0  0  0  0  0
    0.2255    0.8983   -1.4199 H   0  0  0  0  0  0  0  0  0  0  0  0
    4.5202  -11.2150   -0.1918 H   0  0  0  0  0  0  0  0  0  0  0  0
    5.0469  -10.3438   -1.6654 H   0  0  0  0  0  0  0  0  0  0  0  0
    3.3664  -10.9224   -1.5192 H   0  0  0  0  0  0  0  0  0  0  0  0
    3.9708   -6.7498    0.0523 H   0  0  0  0  0  0  0  0  0  0  0  0
    2.2957   -7.2965    0.2928 H   0  0  0  0  0  0  0  0  0  0  0  0
    0.0346   -1.4818   -2.0617 H   0  0  0  0  0  0  0  0  0  0  0  0
    1.6744   -0.8876   -2.3313 H   0  0  0  0  0  0  0  0  0  0  0  0
    1.6518   -6.2118   -1.8801 H   0  0  0  0  0  0  0  0  0  0  0  0
    3.3261   -5.7105   -2.1055 H   0  0  0  0  0  0  0  0  0  0  0  0
    2.4092   -1.8961   -0.1654 H   0  0  0  0  0  0  0  0  0  0  0  0
    0.7663   -2.4645    0.1374 H   0  0  0  0  0  0  0  0  0  0  0  0
    3.2293   -4.3088   -0.0617 H   0  0  0  0  0  0  0  0  0  0  0  0
    1.5709   -4.8243    0.2456 H   0  0  0  0  0  0  0  0  0  0  0  0
    2.5259   -3.2955   -2.2313 H   0  0  0  0  0  0  0  0  0  0  0  0
    0.8702   -3.8451   -1.9630 H   0  0  0  0  0  0  0  0  0  0  0  0
  1  4  1  0  0  0  0
  1 10  2  0  0  0  0
  1 11  1  0  0  0  0
  2  5  1  0  0  0  0
  3 11  1  0  0  0  0
  4  6  1  0  0  0  0
  5  7  1  0  0  0  0
  6  8  1  0  0  0  0
  7  9  1  0  0  0  0
  8  9  1  0  0  0  0
  2 12  1  0  0  0  0
  2 13  1  0  0  0  0
  2 14  1  0  0  0  0
  3 15  1  0  0  0  0
  3 16  1  0  0  0  0
  3 17  1  0  0  0  0
  4 18  1  0  0  0  0
  4 19  1  0  0  0  0
  5 20  1  0  0  0  0
  5 21  1  0  0  0  0
  6 22  1  0  0  0  0
  6 23  1  0  0  0  0
  7 24  1  0  0  0  0
  7 25  1  0  0  0  0
  8 26  1  0  0  0  0
  8 27  1  0  0  0  0
  9 28  1  0  0  0  0
  9 29  1  0  0  0  0
M  END
$$$$
