pyridine
  -OEChem-10241310023D

 11 11  0     0  0  0  0  0  0999 V2000
    1.2858   -0.0601    1.7333 C   0  0  0  0  0  0  0  0  0  0  0  0
    0.1842   -0.4388    0.9739 C   0  0  0  0  0  0  0  0  0  0  0  0
    1.4967   -0.6399    2.9793 C   0  0  0  0  0  0  0  0  0  0  0  0
   -0.6697   -1.3939    1.5014 C   0  0  0  0  0  0  0  0  0  0  0  0
    0.5838   -1.5858    3.4172 C   0  0  0  0  0  0  0  0  0  0  0  0
   -0.4976   -1.9792    2.7078 N   0  0  0  0  0  0  0  0  0  0  0  0
    1.9788    0.6851    1.3547 H   0  0  0  0  0  0  0  0  0  0  0  0
    0.0002   -0.0002   -0.0005 H   0  0  0  0  0  0  0  0  0  0  0  0
    2.3487   -0.3604    3.5885 H   0  0  0  0  0  0  0  0  0  0  0  0
   -1.5433   -1.7237    0.9484 H   0  0  0  0  0  0  0  0  0  0  0  0
    0.7027   -2.0679    4.3821 H   0  0  0  0  0  0  0  0  0  0  0  0
  1  2  1  0  0  0  0
  1  3  2  0  0  0  0
  2  4  2  0  0  0  0
  3  5  1  0  0  0  0
  4  6  1  0  0  0  0
  5  6  2  0  0  0  0
  1  7  1  0  0  0  0
  2  8  1  0  0  0  0
  3  9  1  0  0  0  0
  4 10  1  0  0  0  0
  5 11  1  0  0  0  0
M  END
$$$$
