22_dimethylpropane
  -OEChem-10241310023D

 17 16  0     0  0  0  0  0  0999 V2000
   -0.6138   -0.1246    0.8990 C   0  0  0  0  0  0  0  0  0  0  0  0
    1.1851    0.8592    2.3421 C   0  0  0  0  0  0  0  0  0  0  0  0
    1.1078   -1.6156    1.9474 C   0  0  0  0  0  0  0  0  0  0  0  0
   -0.6372   -0.5188    3.3750 C   0  0  0  0  0  0  0  0  0  0  0  0
    0.2605   -0.3499    2.1409 C   0  0  0  0  0  0  0  0  0  0  0  0
   -1.2320    0.7735    1.0077 H   0  0  0  0  0  0  0  0  0  0  0  0
    0.0000    0.0000    0.0000 H   0  0  0  0  0  0  0  0  0  0  0  0
   -1.2859   -0.9732    0.7288 H   0  0  0  0  0  0  0  0  0  0  0  0
    1.8230    0.7275    3.2233 H   0  0  0  0  0  0  0  0  0  0  0  0
    0.6080    1.7801    2.4830 H   0  0  0  0  0  0  0  0  0  0  0  0
    1.8397    1.0055    1.4756 H   0  0  0  0  0  0  0  0  0  0  0  0
    0.4743   -2.4976    1.8003 H   0  0  0  0  0  0  0  0  0  0  0  0
    1.7610   -1.5248    1.0723 H   0  0  0  0  0  0  0  0  0  0  0  0
    1.7435   -1.8036    2.8198 H   0  0  0  0  0  0  0  0  0  0  0  0
   -1.2562    0.3705    3.5391 H   0  0  0  0  0  0  0  0  0  0  0  0
   -0.0404   -0.6810    4.2795 H   0  0  0  0  0  0  0  0  0  0  0  0
   -1.3098   -1.3765    3.2610 H   0  0  0  0  0  0  0  0  0  0  0  0
  1  5  1  0  0  0  0
  2  5  1  0  0  0  0
  3  5  1  0  0  0  0
  4  5  1  0  0  0  0
  1  6  1  0  0  0  0
  1  7  1  0  0  0  0
  1  8  1  0  0  0  0
  2  9  1  0  0  0  0
  2 10  1  0  0  0  0
  2 11  1  0  0  0  0
  3 12  1  0  0  0  0
  3 13  1  0  0  0  0
  3 14  1  0  0  0  0
  4 15  1  0  0  0  0
  4 16  1  0  0  0  0
  4 17  1  0  0  0  0
M  END
$$$$
