res
  -OEChem-10241310023D

 15 15  0     0  0  0  0  0  0999 V2000
    1.0000    1.8870    0.0360 H   0  0  0  0  0  0  0  0  0  0  0  0
   -0.0030    1.4930    0.0200 C   0  0  0  0  0  0  0  0  0  0  0  0
   -0.5220    1.8810    0.9000 H   0  0  0  0  0  0  0  0  0  0  0  0
   -0.5240    1.8970   -0.8650 H   0  0  0  0  0  0  0  0  0  0  0  0
   -0.0510    0.0040    0.0060 C   0  0  0  0  0  0  0  0  0  0  0  0
   -1.1440   -0.6990    0.5480 C   0  0  0  0  0  0  0  0  0  0  0  0
   -1.9640   -0.1640    0.9880 H   0  0  0  0  0  0  0  0  0  0  0  0
   -1.1810   -2.0830    0.5070 C   0  0  0  0  0  0  0  0  0  0  0  0
   -2.0090   -2.6240    0.9080 H   0  0  0  0  0  0  0  0  0  0  0  0
   -0.1270   -2.8080   -0.0720 C   0  0  0  0  0  0  0  0  0  0  0  0
    0.9580   -2.1410   -0.6240 C   0  0  0  0  0  0  0  0  0  0  0  0
    1.7810   -2.6720   -1.0770 H   0  0  0  0  0  0  0  0  0  0  0  0
    1.0000   -0.7190   -0.5820 C   0  0  0  0  0  0  0  0  0  0  0  0
    1.8570   -0.2100   -1.0160 H   0  0  0  0  0  0  0  0  0  0  0  0
   -0.1520   -3.8930   -0.1210 H   0  0  0  0  0  0  0  0  0  0  0  0
  1  2  1  0  0  0  0
  2  3  1  0  0  0  0
  2  4  1  0  0  0  0
  2  5  1  0  0  0  0
  5  6  2  0  0  0  0
  5 13  1  0  0  0  0
  6  7  1  0  0  0  0
  6  8  1  0  0  0  0
  8  9  1  0  0  0  0
  8 10  2  0  0  0  0
 10 11  1  0  0  0  0
 10 15  1  0  0  0  0
 11 12  1  0  0  0  0
 11 13  2  0  0  0  0
 13 14  1  0  0  0  0
M  END
$$$$
