methyl_propanoate
  -OEChem-10241310023D

 14 13  0     0  0  0  0  0  0999 V2000
   -2.0715    1.2977    2.4497 C   0  0  0  0  0  0  0  0  0  0  0  0
   -0.8816    0.5302    0.3734 C   0  0  0  0  0  0  0  0  0  0  0  0
   -3.0831    1.9316    4.4926 C   0  0  0  0  0  0  0  0  0  0  0  0
   -0.8823    0.5514    1.8920 C   0  0  0  0  0  0  0  0  0  0  0  0
   -2.9385    1.8436    1.7813 O   0  0  0  0  0  0  0  0  0  0  0  0
   -2.0159    1.2612    3.8143 O   0  0  0  0  0  0  0  0  0  0  0  0
   -0.8507    1.5461   -0.0343 H   0  0  0  0  0  0  0  0  0  0  0  0
   -0.0095   -0.0152    0.0001 H   0  0  0  0  0  0  0  0  0  0  0  0
   -1.7823    0.0419   -0.0133 H   0  0  0  0  0  0  0  0  0  0  0  0
   -2.8527    1.9992    5.5586 H   0  0  0  0  0  0  0  0  0  0  0  0
   -4.0143    1.3789    4.3445 H   0  0  0  0  0  0  0  0  0  0  0  0
   -3.1896    2.9379    4.0806 H   0  0  0  0  0  0  0  0  0  0  0  0
    0.0313    1.0393    2.2480 H   0  0  0  0  0  0  0  0  0  0  0  0
   -0.9104   -0.4767    2.2684 H   0  0  0  0  0  0  0  0  0  0  0  0
  1  4  1  0  0  0  0
  1  5  2  0  0  0  0
  1  6  1  0  0  0  0
  2  4  1  0  0  0  0
  3  6  1  0  0  0  0
  2  7  1  0  0  0  0
  2  8  1  0  0  0  0
  2  9  1  0  0  0  0
  3 10  1  0  0  0  0
  3 11  1  0  0  0  0
  3 12  1  0  0  0  0
  4 13  1  0  0  0  0
  4 14  1  0  0  0  0
M  END
$$$$
