13_dimethylnaphthalene
  -OEChem-10241310033D

 24 25  0     0  0  0  0  0  0999 V2000
    0.3475   -1.0287    0.0273 C   0  0  0  0  0  0  0  0  0  0  0  0
   -0.5379   -2.0542    0.3453 C   0  0  0  0  0  0  0  0  0  0  0  0
    1.6819   -1.3207   -0.2566 C   0  0  0  0  0  0  0  0  0  0  0  0
   -0.0923   -3.3759    0.3807 C   0  0  0  0  0  0  0  0  0  0  0  0
    3.4874   -2.9576   -0.5088 C   0  0  0  0  0  0  0  0  0  0  0  0
    3.0475   -5.3048   -0.1554 C   0  0  0  0  0  0  0  0  0  0  0  0
    2.1477   -2.6453   -0.2257 C   0  0  0  0  0  0  0  0  0  0  0  0
    1.2474   -3.6882    0.0977 C   0  0  0  0  0  0  0  0  0  0  0  0
    3.9329   -4.2793   -0.4735 C   0  0  0  0  0  0  0  0  0  0  0  0
    1.7132   -5.0127    0.1285 C   0  0  0  0  0  0  0  0  0  0  0  0
    5.3590   -4.5931   -0.7775 C   0  0  0  0  0  0  0  0  0  0  0  0
    0.8141   -6.1627    0.4635 C   0  0  0  0  0  0  0  0  0  0  0  0
   -0.0001   -0.0000   -0.0012 H   0  0  0  0  0  0  0  0  0  0  0  0
   -1.5766   -1.8262    0.5659 H   0  0  0  0  0  0  0  0  0  0  0  0
    2.3560   -0.5030   -0.5035 H   0  0  0  0  0  0  0  0  0  0  0  0
   -0.8141   -4.1489    0.6335 H   0  0  0  0  0  0  0  0  0  0  0  0
    4.1903   -2.1650   -0.7598 H   0  0  0  0  0  0  0  0  0  0  0  0
    3.3979   -6.3342   -0.1287 H   0  0  0  0  0  0  0  0  0  0  0  0
    5.9848   -4.4204    0.1066 H   0  0  0  0  0  0  0  0  0  0  0  0
    5.4789   -5.6385   -1.0899 H   0  0  0  0  0  0  0  0  0  0  0  0
    5.7374   -3.9707   -1.5989 H   0  0  0  0  0  0  0  0  0  0  0  0
    1.1584   -6.6545    1.3789 H   0  0  0  0  0  0  0  0  0  0  0  0
   -0.2172   -5.8242    0.6111 H   0  0  0  0  0  0  0  0  0  0  0  0
    0.7993   -6.8983   -0.3483 H   0  0  0  0  0  0  0  0  0  0  0  0
  1  2  1  0  0  0  0
  1  3  2  0  0  0  0
  2  4  2  0  0  0  0
  3  7  1  0  0  0  0
  4  8  1  0  0  0  0
  5  7  2  0  0  0  0
  5  9  1  0  0  0  0
  6  9  2  0  0  0  0
  6 10  1  0  0  0  0
  7  8  1  0  0  0  0
  8 10  2  0  0  0  0
  9 11  1  0  0  0  0
 10 12  1  0  0  0  0
  1 13  1  0  0  0  0
  2 14  1  0  0  0  0
  3 15  1  0  0  0  0
  4 16  1  0  0  0  0
  5 17  1  0  0  0  0
  6 18  1  0  0  0  0
 11 19  1  0  0  0  0
 11 20  1  0  0  0  0
 11 21  1  0  0  0  0
 12 22  1  0  0  0  0
 12 23  1  0  0  0  0
 12 24  1  0  0  0  0
M  END
$$$$
