1,2,3,4-tetrachloro-5-(3,4-dichlorophenyl)benzene
  -OEChem-10241310023D

 22 23  0     0  0  0  0  0  0999 V2000
    1.8851   -1.0363   -0.1124 C   0  0  0  0  0  0  0  0  0  0  0  0
    0.8066   -0.4630    0.5610 C   0  0  0  0  0  0  0  0  0  0  0  0
    2.8783   -1.6520    2.0022 C   0  0  0  0  0  0  0  0  0  0  0  0
    5.1372   -1.4106   -0.3699 C   0  0  0  0  0  0  0  0  0  0  0  0
    2.9210   -1.6309    0.6081 C   0  0  0  0  0  0  0  0  0  0  0  0
    4.0396   -2.2249   -0.0913 C   0  0  0  0  0  0  0  0  0  0  0  0
    0.7638   -0.4841    1.9551 C   0  0  0  0  0  0  0  0  0  0  0  0
    1.7997   -1.0786    2.6757 C   0  0  0  0  0  0  0  0  0  0  0  0
    6.2412   -1.9342   -1.0428 C   0  0  0  0  0  0  0  0  0  0  0  0
    4.0459   -3.5629   -0.4854 C   0  0  0  0  0  0  0  0  0  0  0  0
    6.2475   -3.2722   -1.4369 C   0  0  0  0  0  0  0  0  0  0  0  0
    5.1499   -4.0866   -1.1583 C   0  0  0  0  0  0  0  0  0  0  0  0
   -0.5975    0.2459    2.7310 Cl  0  0  0  0  0  0  0  0  0  0  0  0
    1.8049   -1.1324    4.4038 Cl  0  0  0  0  0  0  0  0  0  0  0  0
    7.5635   -0.8611   -1.3526 Cl  0  0  0  0  0  0  0  0  0  0  0  0
    2.6649   -4.5620   -0.1262 Cl  0  0  0  0  0  0  0  0  0  0  0  0
    7.6317   -3.9110   -2.2776 Cl  0  0  0  0  0  0  0  0  0  0  0  0
    5.1563   -5.7586   -1.6489 Cl  0  0  0  0  0  0  0  0  0  0  0  0
    1.9031   -1.0140   -1.1996 H   0  0  0  0  0  0  0  0  0  0  0  0
    0.0077   -0.0047   -0.0169 H   0  0  0  0  0  0  0  0  0  0  0  0
    3.6868   -2.1175    2.5628 H   0  0  0  0  0  0  0  0  0  0  0  0
    5.1321   -0.3663   -0.0620 H   0  0  0  0  0  0  0  0  0  0  0  0
  1  2  2  0  0  0  0
  1  5  1  0  0  0  0
  2  7  1  0  0  0  0
  3  5  2  0  0  0  0
  3  8  1  0  0  0  0
  4  6  2  0  0  0  0
  4  9  1  0  0  0  0
  5  6  1  0  0  0  0
  6 10  1  0  0  0  0
  7  8  2  0  0  0  0
  7 13  1  0  0  0  0
  8 14  1  0  0  0  0
  9 11  2  0  0  0  0
  9 15  1  0  0  0  0
 10 12  2  0  0  0  0
 10 16  1  0  0  0  0
 11 12  1  0  0  0  0
 11 17  1  0  0  0  0
 12 18  1  0  0  0  0
  1 19  1  0  0  0  0
  2 20  1  0  0  0  0
  3 21  1  0  0  0  0
  4 22  1  0  0  0  0
M  END
$$$$
