2_naphthol
  -OEChem-10241310033D

 19 20  0     0  0  0  0  0  0999 V2000
   -0.5710   -2.0558    0.2748 C   0  0  0  0  0  0  0  0  0  0  0  0
    0.3374   -1.0322    0.0227 C   0  0  0  0  0  0  0  0  0  0  0  0
   -0.1389   -3.3821    0.3036 C   0  0  0  0  0  0  0  0  0  0  0  0
    1.6817   -1.3308   -0.2013 C   0  0  0  0  0  0  0  0  0  0  0  0
    1.6634   -5.0301    0.1058 C   0  0  0  0  0  0  0  0  0  0  0  0
    3.0079   -5.3284   -0.1178 C   0  0  0  0  0  0  0  0  0  0  0  0
    3.4839   -2.9787   -0.3987 C   0  0  0  0  0  0  0  0  0  0  0  0
    1.2105   -3.7009    0.0804 C   0  0  0  0  0  0  0  0  0  0  0  0
    2.1345   -2.6600   -0.1755 C   0  0  0  0  0  0  0  0  0  0  0  0
    3.9165   -4.3048   -0.3696 C   0  0  0  0  0  0  0  0  0  0  0  0
    5.2278   -4.5970   -0.5869 O   0  0  0  0  0  0  0  0  0  0  0  0
   -1.6172   -1.8217    0.4492 H   0  0  0  0  0  0  0  0  0  0  0  0
    0.0004    0.0001    0.0007 H   0  0  0  0  0  0  0  0  0  0  0  0
   -0.8666   -4.1665    0.5015 H   0  0  0  0  0  0  0  0  0  0  0  0
    2.3741   -0.5142   -0.3960 H   0  0  0  0  0  0  0  0  0  0  0  0
    0.9707   -5.8465    0.2992 H   0  0  0  0  0  0  0  0  0  0  0  0
    3.3389   -6.3631   -0.0938 H   0  0  0  0  0  0  0  0  0  0  0  0
    4.2073   -2.1899   -0.5975 H   0  0  0  0  0  0  0  0  0  0  0  0
    5.6977   -4.5903    0.2671 H   0  0  0  0  0  0  0  0  0  0  0  0
  1  2  1  0  0  0  0
  1  3  2  0  0  0  0
  2  4  2  0  0  0  0
  3  8  1  0  0  0  0
  4  9  1  0  0  0  0
  5  6  1  0  0  0  0
  5  8  2  0  0  0  0
  6 10  2  0  0  0  0
  7  9  2  0  0  0  0
  7 10  1  0  0  0  0
  8  9  1  0  0  0  0
 10 11  1  0  0  0  0
  1 12  1  0  0  0  0
  2 13  1  0  0  0  0
  3 14  1  0  0  0  0
  4 15  1  0  0  0  0
  5 16  1  0  0  0  0
  6 17  1  0  0  0  0
  7 18  1  0  0  0  0
 11 19  1  0  0  0  0
M  END
$$$$
