diethyl_ether
  -OEChem-10241310023D

 15 14  0     0  0  0  0  0  0999 V2000
    0.9167    1.4498    0.5861 C   0  0  0  0  0  0  0  0  0  0  0  0
    1.9430    1.3174   -4.0752 C   0  0  0  0  0  0  0  0  0  0  0  0
    1.9101    0.9126   -0.4220 C   0  0  0  0  0  0  0  0  0  0  0  0
    2.4157    0.8471   -2.7161 C   0  0  0  0  0  0  0  0  0  0  0  0
    1.5170    1.3236   -1.7228 O   0  0  0  0  0  0  0  0  0  0  0  0
    1.1904    1.1501    1.6015 H   0  0  0  0  0  0  0  0  0  0  0  0
    0.8727    2.5429    0.5398 H   0  0  0  0  0  0  0  0  0  0  0  0
   -0.0913    1.0813    0.3686 H   0  0  0  0  0  0  0  0  0  0  0  0
    2.6144    0.9676   -4.8644 H   0  0  0  0  0  0  0  0  0  0  0  0
    0.9328    0.9489   -4.2814 H   0  0  0  0  0  0  0  0  0  0  0  0
    1.8962    2.4109   -4.1103 H   0  0  0  0  0  0  0  0  0  0  0  0
    1.9355   -0.1807   -0.3905 H   0  0  0  0  0  0  0  0  0  0  0  0
    2.9125    1.3005   -0.2176 H   0  0  0  0  0  0  0  0  0  0  0  0
    3.4159    1.2356   -2.5021 H   0  0  0  0  0  0  0  0  0  0  0  0
    2.4394   -0.2460   -2.6749 H   0  0  0  0  0  0  0  0  0  0  0  0
  1  3  1  0  0  0  0
  2  4  1  0  0  0  0
  3  5  1  0  0  0  0
  4  5  1  0  0  0  0
  1  6  1  0  0  0  0
  1  7  1  0  0  0  0
  1  8  1  0  0  0  0
  2  9  1  0  0  0  0
  2 10  1  0  0  0  0
  2 11  1  0  0  0  0
  3 12  1  0  0  0  0
  3 13  1  0  0  0  0
  4 14  1  0  0  0  0
  4 15  1  0  0  0  0
M  END
$$$$
