3_nitroaniline
  -OEChem-10241310033D

 16 16  0     0  0  0  0  0  0999 V2000
    0.8324   -0.3948    0.5751 C   0  0  0  0  0  0  0  0  0  0  0  0
    1.8991   -1.0135   -0.0768 C   0  0  0  0  0  0  0  0  0  0  0  0
    0.8349   -0.2829    1.9655 C   0  0  0  0  0  0  0  0  0  0  0  0
    2.9708   -1.4085    2.0522 C   0  0  0  0  0  0  0  0  0  0  0  0
    2.9683   -1.5204    0.6618 C   0  0  0  0  0  0  0  0  0  0  0  0
    1.9042   -0.7896    2.7040 C   0  0  0  0  0  0  0  0  0  0  0  0
    4.0465   -2.1460    0.0026 N   0  0  0  0  0  0  0  0  0  0  0  0
    1.9059   -0.6762    4.1196 N   0  3  0  0  0  0  0  0  0  0  0  0
    0.9360   -0.1166    4.6858 O   0  5  0  0  0  0  0  0  0  0  0  0
    2.8770   -1.1389    4.7654 O   0  0  0  0  0  0  0  0  0  0  0  0
    0.0001    0.0004   -0.0000 H   0  0  0  0  0  0  0  0  0  0  0  0
    1.8870   -1.0950   -1.1606 H   0  0  0  0  0  0  0  0  0  0  0  0
   -0.0029    0.2019    2.4608 H   0  0  0  0  0  0  0  0  0  0  0  0
    3.8062   -1.8050    2.6260 H   0  0  0  0  0  0  0  0  0  0  0  0
    3.8594   -2.7648   -0.7604 H   0  0  0  0  0  0  0  0  0  0  0  0
    4.9713   -2.0356    0.3669 H   0  0  0  0  0  0  0  0  0  0  0  0
  1  2  1  0  0  0  0
  1  3  2  0  0  0  0
  2  5  2  0  0  0  0
  3  6  1  0  0  0  0
  4  5  1  0  0  0  0
  4  6  2  0  0  0  0
  5  7  1  0  0  0  0
  6  8  1  0  0  0  0
  8  9  1  0  0  0  0
  8 10  2  0  0  0  0
  1 11  1  0  0  0  0
  2 12  1  0  0  0  0
  3 13  1  0  0  0  0
  4 14  1  0  0  0  0
  7 15  1  0  0  0  0
  7 16  1  0  0  0  0
M  CHG  2   8   1   9  -1
M  END
$$$$
