methyl_trimethylacetate
  -OEChem-10241310023D

 20 19  0     0  0  0  0  0  0999 V2000
    2.9196   -1.5216    1.0965 C   0  0  0  0  0  0  0  0  0  0  0  0
    0.7043   -0.4120    0.7314 C   0  0  0  0  0  0  0  0  0  0  0  0
    2.5939    0.0304   -0.8446 C   0  0  0  0  0  0  0  0  0  0  0  0
    1.4943   -2.2146   -0.8431 C   0  0  0  0  0  0  0  0  0  0  0  0
    3.1760   -2.9928    2.9354 C   0  0  0  0  0  0  0  0  0  0  0  0
    1.9238   -1.0345    0.0387 C   0  0  0  0  0  0  0  0  0  0  0  0
    4.0726   -1.1204    1.1996 O   0  0  0  0  0  0  0  0  0  0  0  0
    2.3401   -2.4606    1.9028 O   0  0  0  0  0  0  0  0  0  0  0  0
    1.0054    0.3984    1.4052 H   0  0  0  0  0  0  0  0  0  0  0  0
    0.0000    0.0000   -0.0000 H   0  0  0  0  0  0  0  0  0  0  0  0
    0.1615   -1.1493    1.3334 H   0  0  0  0  0  0  0  0  0  0  0  0
    2.9232    0.8903   -0.2497 H   0  0  0  0  0  0  0  0  0  0  0  0
    1.9063    0.3997   -1.6138 H   0  0  0  0  0  0  0  0  0  0  0  0
    3.4777   -0.3733   -1.3522 H   0  0  0  0  0  0  0  0  0  0  0  0
    0.9620   -2.9785   -0.2651 H   0  0  0  0  0  0  0  0  0  0  0  0
    0.8279   -1.8861   -1.6484 H   0  0  0  0  0  0  0  0  0  0  0  0
    2.3638   -2.7012   -1.3002 H   0  0  0  0  0  0  0  0  0  0  0  0
    4.1360   -2.4708    2.9334 H   0  0  0  0  0  0  0  0  0  0  0  0
    3.3299   -4.0615    2.7662 H   0  0  0  0  0  0  0  0  0  0  0  0
    2.6859   -2.8456    3.9007 H   0  0  0  0  0  0  0  0  0  0  0  0
  1  6  1  0  0  0  0
  1  7  2  0  0  0  0
  1  8  1  0  0  0  0
  2  6  1  0  0  0  0
  3  6  1  0  0  0  0
  4  6  1  0  0  0  0
  5  8  1  0  0  0  0
  2  9  1  0  0  0  0
  2 10  1  0  0  0  0
  2 11  1  0  0  0  0
  3 12  1  0  0  0  0
  3 13  1  0  0  0  0
  3 14  1  0  0  0  0
  4 15  1  0  0  0  0
  4 16  1  0  0  0  0
  4 17  1  0  0  0  0
  5 18  1  0  0  0  0
  5 19  1  0  0  0  0
  5 20  1  0  0  0  0
M  END
$$$$
