SAMPL4_001
  -OEChem-10241310033D

 26 25  0     1  0  0  0  0  0999 V2000
    0.2790   -0.8740    1.4860 C   0  0  0  0  0  0  0  0  0  0  0  0
    1.2290   -1.5520   -3.1280 C   0  0  0  0  0  0  0  0  0  0  0  0
    1.1630   -1.7450    0.5960 C   0  0  2  0  0  0  0  0  0  0  0  0
    0.1590   -0.9170   -2.2410 C   0  0  2  0  0  0  0  0  0  0  0  0
    0.3820   -2.6670   -0.3630 C   0  0  2  0  0  0  0  0  0  0  0  0
   -0.5630   -1.9130   -1.3130 C   0  0  2  0  0  0  0  0  0  0  0  0
    1.1140   -0.0980    2.3410 O   0  0  0  0  0  0  0  0  0  0  0  0
    1.8050   -0.5580   -3.9730 O   0  0  0  0  0  0  0  0  0  0  0  0
    1.9500   -2.5690    1.4650 O   0  0  0  0  0  0  0  0  0  0  0  0
   -0.8140   -0.3300   -3.1140 O   0  0  0  0  0  0  0  0  0  0  0  0
   -0.3830   -3.6070    0.3910 O   0  0  0  0  0  0  0  0  0  0  0  0
   -1.2830   -2.8640   -2.0960 O   0  0  0  0  0  0  0  0  0  0  0  0
   -0.3750   -1.4760    2.1210 H   0  0  0  0  0  0  0  0  0  0  0  0
   -0.3240   -0.1790    0.8930 H   0  0  0  0  0  0  0  0  0  0  0  0
    0.8020   -2.3180   -3.7830 H   0  0  0  0  0  0  0  0  0  0  0  0
    2.0390   -1.9980   -2.5460 H   0  0  0  0  0  0  0  0  0  0  0  0
    1.8700   -1.1170    0.0430 H   0  0  0  0  0  0  0  0  0  0  0  0
    0.5920   -0.0920   -1.6640 H   0  0  0  0  0  0  0  0  0  0  0  0
    1.1120   -3.2400   -0.9460 H   0  0  0  0  0  0  0  0  0  0  0  0
   -1.3020   -1.3530   -0.7280 H   0  0  0  0  0  0  0  0  0  0  0  0
    0.5230    0.4410    2.8890 H   0  0  0  0  0  0  0  0  0  0  0  0
    2.4730   -1.0080   -4.5130 H   0  0  0  0  0  0  0  0  0  0  0  0
    2.4680   -1.9620    2.0130 H   0  0  0  0  0  0  0  0  0  0  0  0
   -1.4840    0.0680   -2.5400 H   0  0  0  0  0  0  0  0  0  0  0  0
    0.2510   -4.1160    0.9200 H   0  0  0  0  0  0  0  0  0  0  0  0
   -1.9210   -2.3590   -2.6230 H   0  0  0  0  0  0  0  0  0  0  0  0
  1  3  1  0  0  0  0
  1  7  1  0  0  0  0
  2  4  1  0  0  0  0
  2  8  1  0  0  0  0
  3  5  1  0  0  0  0
  3  9  1  0  0  0  0
  4  6  1  0  0  0  0
  4 10  1  0  0  0  0
  5  6  1  0  0  0  0
  5 11  1  0  0  0  0
  6 12  1  0  0  0  0
  1 13  1  0  0  0  0
  1 14  1  0  0  0  0
  2 15  1  0  0  0  0
  2 16  1  0  0  0  0
  3 17  1  0  0  0  0
  4 18  1  0  0  0  0
  5 19  1  0  0  0  0
  6 20  1  0  0  0  0
  7 21  1  0  0  0  0
  8 22  1  0  0  0  0
  9 23  1  0  0  0  0
 10 24  1  0  0  0  0
 11 25  1  0  0  0  0
 12 26  1  0  0  0  0
M  END
$$$$
