CUP08010_AM1BCC_v1_0
  -OEChem-10241310023D

 31 32  0     0  0  0  0  0  0999 V2000
   -3.8235   -2.6718   -4.7117 C   0  0  0  0  0  0  0  0  0  0  0  0
   -2.8277   -1.6961   -4.6948 C   0  0  0  0  0  0  0  0  0  0  0  0
   -3.4756   -4.0163   -4.5981 C   0  0  0  0  0  0  0  0  0  0  0  0
   -1.4856   -2.0676   -4.5640 C   0  0  0  0  0  0  0  0  0  0  0  0
   -2.1271   -4.3687   -4.4683 C   0  0  0  0  0  0  0  0  0  0  0  0
   -1.1223   -3.4146   -4.4489 C   0  0  0  0  0  0  0  0  0  0  0  0
   -1.7015   -5.7595   -4.3464 C   0  0  0  0  0  0  0  0  0  0  0  0
   -0.5666  -11.8281   -1.5271 C   0  0  0  0  0  0  0  0  0  0  0  0
    3.3883   -9.5374   -2.3131 C   0  0  0  0  0  0  0  0  0  0  0  0
    0.1847   -7.2918   -4.0602 C   0  0  0  0  0  0  0  0  0  0  0  0
    0.2324   -3.7415   -4.3206 N   0  0  0  0  0  0  0  0  0  0  0  0
    0.5769   -4.9368   -4.2067 N   0  0  0  0  0  0  0  0  0  0  0  0
   -0.3393   -5.9504   -4.2245 N   0  0  0  0  0  0  0  0  0  0  0  0
   -2.5337   -6.6626   -4.3603 O   0  0  0  0  0  0  0  0  0  0  0  0
   -0.1724  -10.4834   -1.3295 O   0  0  0  0  0  0  0  0  0  0  0  0
    2.2015   -9.9939   -1.6910 O   0  0  0  0  0  0  0  0  0  0  0  0
    0.7764   -9.7655   -2.4414 P   0  0  0  0  0  0  0  0  0  0  0  0
    0.6981  -10.6541   -4.1766 S   0  0  0  0  0  0  0  0  0  0  0  0
    0.3552   -7.7130   -2.3104 S   0  0  0  0  0  0  0  0  0  0  0  0
   -4.8679   -2.3853   -4.8122 H   0  0  0  0  0  0  0  0  0  0  0  0
   -3.0939   -0.6450   -4.7822 H   0  0  0  0  0  0  0  0  0  0  0  0
   -4.2467   -4.7833   -4.6094 H   0  0  0  0  0  0  0  0  0  0  0  0
   -0.7149   -1.3000   -4.5505 H   0  0  0  0  0  0  0  0  0  0  0  0
   -1.4771  -12.0107   -0.9505 H   0  0  0  0  0  0  0  0  0  0  0  0
    0.2160  -12.4994   -1.1647 H   0  0  0  0  0  0  0  0  0  0  0  0
   -0.7734  -12.0319   -2.5808 H   0  0  0  0  0  0  0  0  0  0  0  0
    4.1579   -9.4183   -1.5461 H   0  0  0  0  0  0  0  0  0  0  0  0
    3.2348   -8.5742   -2.8062 H   0  0  0  0  0  0  0  0  0  0  0  0
    3.7319  -10.2766   -3.0410 H   0  0  0  0  0  0  0  0  0  0  0  0
   -0.4837   -8.0082   -4.5462 H   0  0  0  0  0  0  0  0  0  0  0  0
    1.1615   -7.3554   -4.5509 H   0  0  0  0  0  0  0  0  0  0  0  0
  1  2  1  0  0  0  0
  1  3  2  0  0  0  0
  2  4  2  0  0  0  0
  3  5  1  0  0  0  0
  4  6  1  0  0  0  0
  5  6  2  0  0  0  0
  5  7  1  0  0  0  0
  6 11  1  0  0  0  0
  7 13  1  0  0  0  0
  7 14  2  0  0  0  0
  8 15  1  0  0  0  0
  9 16  1  0  0  0  0
 10 13  1  0  0  0  0
 10 19  1  0  0  0  0
 11 12  2  0  0  0  0
 12 13  1  0  0  0  0
 15 17  1  0  0  0  0
 16 17  1  0  0  0  0
 17 18  2  0  0  0  0
 17 19  1  0  0  0  0
  1 20  1  0  0  0  0
  2 21  1  0  0  0  0
  3 22  1  0  0  0  0
  4 23  1  0  0  0  0
  8 24  1  0  0  0  0
  8 25  1  0  0  0  0
  8 26  1  0  0  0  0
  9 27  1  0  0  0  0
  9 28  1  0  0  0  0
  9 29  1  0  0  0  0
 10 30  1  0  0  0  0
 10 31  1  0  0  0  0
M  END
$$$$
