dibenzo-p-dioxin
  -OEChem-10241310023D

 22 24  0     0  0  0  0  0  0999 V2000
   -1.8584    0.7400    0.8000 C   0  0  0  0  0  0  0  0  0  0  0  0
   -1.0039   -0.2568    0.3257 C   0  0  0  0  0  0  0  0  0  0  0  0
   -6.9616   -4.1465    1.8755 C   0  0  0  0  0  0  0  0  0  0  0  0
   -6.1071   -5.1433    1.4010 C   0  0  0  0  0  0  0  0  0  0  0  0
   -3.1487    0.4152    1.2196 C   0  0  0  0  0  0  0  0  0  0  0  0
   -1.4367   -1.5819    0.2693 C   0  0  0  0  0  0  0  0  0  0  0  0
   -6.5287   -2.8214    1.9320 C   0  0  0  0  0  0  0  0  0  0  0  0
   -4.8168   -4.8184    0.9815 C   0  0  0  0  0  0  0  0  0  0  0  0
   -3.5799   -0.9097    1.1626 C   0  0  0  0  0  0  0  0  0  0  0  0
   -2.7266   -1.9051    0.6889 C   0  0  0  0  0  0  0  0  0  0  0  0
   -5.2389   -2.4982    1.5123 C   0  0  0  0  0  0  0  0  0  0  0  0
   -4.3856   -3.4936    1.0385 C   0  0  0  0  0  0  0  0  0  0  0  0
   -4.8561   -1.1828    1.5855 O   0  0  0  0  0  0  0  0  0  0  0  0
   -3.1093   -3.2205    0.6157 O   0  0  0  0  0  0  0  0  0  0  0  0
   -1.5174    1.7703    0.8424 H   0  0  0  0  0  0  0  0  0  0  0  0
    0.0001   -0.0001    0.0005 H   0  0  0  0  0  0  0  0  0  0  0  0
   -7.9656   -4.4034    2.2014 H   0  0  0  0  0  0  0  0  0  0  0  0
   -6.4481   -6.1739    1.3584 H   0  0  0  0  0  0  0  0  0  0  0  0
   -3.8080    1.1963    1.5874 H   0  0  0  0  0  0  0  0  0  0  0  0
   -0.7661   -2.3525   -0.1007 H   0  0  0  0  0  0  0  0  0  0  0  0
   -7.1990   -2.0506    2.3025 H   0  0  0  0  0  0  0  0  0  0  0  0
   -4.1573   -5.5992    0.6131 H   0  0  0  0  0  0  0  0  0  0  0  0
  1  2  2  0  0  0  0
  1  5  1  0  0  0  0
  2  6  1  0  0  0  0
  3  4  2  0  0  0  0
  3  7  1  0  0  0  0
  4  8  1  0  0  0  0
  5  9  2  0  0  0  0
  6 10  2  0  0  0  0
  7 11  2  0  0  0  0
  8 12  2  0  0  0  0
  9 10  1  0  0  0  0
  9 13  1  0  0  0  0
 10 14  1  0  0  0  0
 11 12  1  0  0  0  0
 11 13  1  0  0  0  0
 12 14  1  0  0  0  0
  1 15  1  0  0  0  0
  2 16  1  0  0  0  0
  3 17  1  0  0  0  0
  4 18  1  0  0  0  0
  5 19  1  0  0  0  0
  6 20  1  0  0  0  0
  7 21  1  0  0  0  0
  8 22  1  0  0  0  0
M  END
$$$$
