2_methyltetrahydrofuran
  -OEChem-10241310033D

 16 16  0     1  0  0  0  0  0999 V2000
    0.9183   -0.3716    0.4620 C   0  0  0  0  0  0  0  0  0  0  0  0
    0.6782   -1.2623    1.6553 C   0  0  0  0  0  0  0  0  0  0  0  0
    1.7110   -1.2801   -0.4497 C   0  0  0  0  0  0  0  0  0  0  0  0
    1.9621   -2.0748    1.7321 C   0  0  2  0  0  0  0  0  0  0  0  0
    3.0085   -1.4464    2.6423 C   0  0  0  0  0  0  0  0  0  0  0  0
    2.4969   -2.1287    0.3977 O   0  0  0  0  0  0  0  0  0  0  0  0
    0.0010    0.0026    0.0003 H   0  0  0  0  0  0  0  0  0  0  0  0
    1.5300    0.4884    0.7590 H   0  0  0  0  0  0  0  0  0  0  0  0
    0.4482   -0.7129    2.5726 H   0  0  0  0  0  0  0  0  0  0  0  0
   -0.1655   -1.9305    1.4427 H   0  0  0  0  0  0  0  0  0  0  0  0
    1.0497   -1.9202   -1.0437 H   0  0  0  0  0  0  0  0  0  0  0  0
    2.3660   -0.7282   -1.1294 H   0  0  0  0  0  0  0  0  0  0  0  0
    1.7638   -3.0962    2.0719 H   0  0  0  0  0  0  0  0  0  0  0  0
    2.8409   -0.3691    2.7342 H   0  0  0  0  0  0  0  0  0  0  0  0
    2.9638   -1.8886    3.6421 H   0  0  0  0  0  0  0  0  0  0  0  0
    4.0133   -1.6055    2.2398 H   0  0  0  0  0  0  0  0  0  0  0  0
  1  2  1  0  0  0  0
  1  3  1  0  0  0  0
  2  4  1  0  0  0  0
  3  6  1  0  0  0  0
  4  5  1  0  0  0  0
  4  6  1  0  0  0  0
  1  7  1  0  0  0  0
  1  8  1  0  0  0  0
  2  9  1  0  0  0  0
  2 10  1  0  0  0  0
  3 11  1  0  0  0  0
  3 12  1  0  0  0  0
  4 13  1  0  0  0  0
  5 14  1  0  0  0  0
  5 15  1  0  0  0  0
  5 16  1  0  0  0  0
M  END
$$$$
