CUP08043_AM1BCC_v1_0
  -OEChem-10241310043D

 32 32  0     0  0  0  0  0  0999 V2000
   -3.1317   -1.4303   -6.1123 C   0  0  0  0  0  0  0  0  0  0  0  0
   -3.4808    0.9621   -5.8670 C   0  0  0  0  0  0  0  0  0  0  0  0
   -2.1975   -1.4002   -5.0705 C   0  0  0  0  0  0  0  0  0  0  0  0
   -2.5468    0.9797   -4.8282 C   0  0  0  0  0  0  0  0  0  0  0  0
   -3.7716   -0.2482   -6.5069 C   0  0  0  0  0  0  0  0  0  0  0  0
   -1.9092   -0.1979   -4.4259 C   0  0  0  0  0  0  0  0  0  0  0  0
    1.5852    1.3178   -0.3372 C   0  0  0  0  0  0  0  0  0  0  0  0
    2.5003   -3.1630   -4.5825 C   0  0  0  0  0  0  0  0  0  0  0  0
    0.4093    0.4608   -0.7591 C   0  0  0  0  0  0  0  0  0  0  0  0
    1.6212   -2.8743   -3.3829 C   0  0  0  0  0  0  0  0  0  0  0  0
   -4.7499   -0.2780   -7.6014 N   0  3  0  0  0  0  0  0  0  0  0  0
   -4.9780   -1.3696   -8.1415 O   0  5  0  0  0  0  0  0  0  0  0  0
   -5.2883    0.7912   -7.9219 O   0  0  0  0  0  0  0  0  0  0  0  0
   -1.0138   -0.0604   -3.4037 O   0  0  0  0  0  0  0  0  0  0  0  0
    0.8435   -0.4333   -1.7704 O   0  0  0  0  0  0  0  0  0  0  0  0
    0.6410   -1.9230   -3.7625 O   0  0  0  0  0  0  0  0  0  0  0  0
   -0.2763   -1.2564   -2.6053 P   0  0  0  0  0  0  0  0  0  0  0  0
   -1.3902   -2.4610   -1.5689 S   0  0  0  0  0  0  0  0  0  0  0  0
   -3.3452   -2.3787   -6.6024 H   0  0  0  0  0  0  0  0  0  0  0  0
   -3.9657    1.8907   -6.1611 H   0  0  0  0  0  0  0  0  0  0  0  0
   -1.7122   -2.3321   -4.7952 H   0  0  0  0  0  0  0  0  0  0  0  0
   -2.3172    1.9191   -4.3293 H   0  0  0  0  0  0  0  0  0  0  0  0
    2.4038    0.6928    0.0348 H   0  0  0  0  0  0  0  0  0  0  0  0
    1.9770    1.8814   -1.1904 H   0  0  0  0  0  0  0  0  0  0  0  0
    1.2939    2.0218    0.4473 H   0  0  0  0  0  0  0  0  0  0  0  0
    1.9016   -3.5430   -5.4171 H   0  0  0  0  0  0  0  0  0  0  0  0
    2.9885   -2.2472   -4.9320 H   0  0  0  0  0  0  0  0  0  0  0  0
    3.2690   -3.9002   -4.3347 H   0  0  0  0  0  0  0  0  0  0  0  0
   -0.3977    1.0953   -1.1380 H   0  0  0  0  0  0  0  0  0  0  0  0
    0.0398   -0.1116    0.0969 H   0  0  0  0  0  0  0  0  0  0  0  0
    2.2283   -2.4830   -2.5609 H   0  0  0  0  0  0  0  0  0  0  0  0
    1.1272   -3.7933   -3.0542 H   0  0  0  0  0  0  0  0  0  0  0  0
  1  3  1  0  0  0  0
  1  5  2  0  0  0  0
  2  4  2  0  0  0  0
  2  5  1  0  0  0  0
  3  6  2  0  0  0  0
  4  6  1  0  0  0  0
  5 11  1  0  0  0  0
  6 14  1  0  0  0  0
  7  9  1  0  0  0  0
  8 10  1  0  0  0  0
  9 15  1  0  0  0  0
 10 16  1  0  0  0  0
 11 12  1  0  0  0  0
 11 13  2  0  0  0  0
 14 17  1  0  0  0  0
 15 17  1  0  0  0  0
 16 17  1  0  0  0  0
 17 18  2  0  0  0  0
  1 19  1  0  0  0  0
  2 20  1  0  0  0  0
  3 21  1  0  0  0  0
  4 22  1  0  0  0  0
  7 23  1  0  0  0  0
  7 24  1  0  0  0  0
  7 25  1  0  0  0  0
  8 26  1  0  0  0  0
  8 27  1  0  0  0  0
  8 28  1  0  0  0  0
  9 29  1  0  0  0  0
  9 30  1  0  0  0  0
 10 31  1  0  0  0  0
 10 32  1  0  0  0  0
M  CHG  2  11   1  12  -1
M  END
$$$$
