isoflurane
  -OEChem-10241310023D

 12 11  0     1  0  0  0  0  0999 V2000
   -0.0671   -1.4261    2.2066 C   0  0  2  0  0  0  0  0  0  0  0  0
   -2.0898   -0.9930    1.0491 C   0  0  0  0  0  0  0  0  0  0  0  0
    0.3612   -2.3453    3.3303 C   0  0  0  0  0  0  0  0  0  0  0  0
   -1.2351   -1.9787    1.6027 O   0  0  0  0  0  0  0  0  0  0  0  0
   -2.4893   -0.1814    2.0592 F   0  0  0  0  0  0  0  0  0  0  0  0
   -3.2016   -1.6005    0.5684 F   0  0  0  0  0  0  0  0  0  0  0  0
   -0.5966   -2.4402    4.2787 F   0  0  0  0  0  0  0  0  0  0  0  0
    1.4763   -1.8725    3.9319 F   0  0  0  0  0  0  0  0  0  0  0  0
    0.6326   -3.5910    2.8863 F   0  0  0  0  0  0  0  0  0  0  0  0
    1.2374   -1.3110    0.9970 Cl  0  0  0  0  0  0  0  0  0  0  0  0
   -0.2622   -0.4235    2.6032 H   0  0  0  0  0  0  0  0  0  0  0  0
   -1.6121   -0.3928    0.2686 H   0  0  0  0  0  0  0  0  0  0  0  0
  1  3  1  0  0  0  0
  1  4  1  0  0  0  0
  1 10  1  0  0  0  0
  2  4  1  0  0  0  0
  2  5  1  0  0  0  0
  2  6  1  0  0  0  0
  3  7  1  0  0  0  0
  3  8  1  0  0  0  0
  3  9  1  0  0  0  0
  1 11  1  0  0  0  0
  2 12  1  0  0  0  0
M  END
$$$$
