4_chloroaniline
  -OEChem-10241310043D

 14 14  0     0  0  0  0  0  0999 V2000
    0.8178   -0.4385    0.5644 C   0  0  0  0  0  0  0  0  0  0  0  0
    2.9371   -1.5972    0.6197 C   0  0  0  0  0  0  0  0  0  0  0  0
    0.7994   -0.4058    1.9588 C   0  0  0  0  0  0  0  0  0  0  0  0
    2.9185   -1.5646    2.0141 C   0  0  0  0  0  0  0  0  0  0  0  0
    1.8867   -1.0341   -0.1051 C   0  0  0  0  0  0  0  0  0  0  0  0
    1.8497   -0.9689    2.6836 C   0  0  0  0  0  0  0  0  0  0  0  0
    1.9055   -1.0670   -1.5149 N   0  0  0  0  0  0  0  0  0  0  0  0
    1.8274   -0.9276    4.4039 Cl  0  0  0  0  0  0  0  0  0  0  0  0
   -0.0058    0.0033    0.0094 H   0  0  0  0  0  0  0  0  0  0  0  0
    3.7751   -2.0636    0.1080 H   0  0  0  0  0  0  0  0  0  0  0  0
   -0.0399    0.0619    2.4672 H   0  0  0  0  0  0  0  0  0  0  0  0
    3.7440   -2.0071    2.5658 H   0  0  0  0  0  0  0  0  0  0  0  0
    1.1741   -0.6126   -2.0234 H   0  0  0  0  0  0  0  0  0  0  0  0
    2.5948   -1.6219   -1.9806 H   0  0  0  0  0  0  0  0  0  0  0  0
  1  3  1  0  0  0  0
  1  5  2  0  0  0  0
  2  4  2  0  0  0  0
  2  5  1  0  0  0  0
  3  6  2  0  0  0  0
  4  6  1  0  0  0  0
  5  7  1  0  0  0  0
  6  8  1  0  0  0  0
  1  9  1  0  0  0  0
  2 10  1  0  0  0  0
  3 11  1  0  0  0  0
  4 12  1  0  0  0  0
  7 13  1  0  0  0  0
  7 14  1  0  0  0  0
M  END
$$$$
