cyclohexanol
  -OEChem-10241310033D

 19 19  0     0  0  0  0  0  0999 V2000
    0.8595   -0.5761   -0.3646 C   0  0  0  0  0  0  0  0  0  0  0  0
    1.9981   -0.4824    0.6484 C   0  0  0  0  0  0  0  0  0  0  0  0
    1.2772   -0.0492   -1.7356 C   0  0  0  0  0  0  0  0  0  0  0  0
    2.5549    0.9347    0.7374 C   0  0  0  0  0  0  0  0  0  0  0  0
    1.8340    1.3679   -1.6464 C   0  0  0  0  0  0  0  0  0  0  0  0
    2.9750    1.4610   -0.6344 C   0  0  0  0  0  0  0  0  0  0  0  0
    3.4005    2.8144   -0.5171 O   0  0  0  0  0  0  0  0  0  0  0  0
    0.5302   -1.6174   -0.4543 H   0  0  0  0  0  0  0  0  0  0  0  0
    0.0002    0.0001   -0.0001 H   0  0  0  0  0  0  0  0  0  0  0  0
    1.6422   -0.8020    1.6343 H   0  0  0  0  0  0  0  0  0  0  0  0
    2.8007   -1.1719    0.3589 H   0  0  0  0  0  0  0  0  0  0  0  0
    2.0374   -0.7133   -2.1649 H   0  0  0  0  0  0  0  0  0  0  0  0
    0.4173   -0.0659   -2.4148 H   0  0  0  0  0  0  0  0  0  0  0  0
    1.8037    1.6047    1.1756 H   0  0  0  0  0  0  0  0  0  0  0  0
    3.4111    0.9603    1.4222 H   0  0  0  0  0  0  0  0  0  0  0  0
    2.1840    1.6982   -2.6319 H   0  0  0  0  0  0  0  0  0  0  0  0
    1.0346    2.0661   -1.3659 H   0  0  0  0  0  0  0  0  0  0  0  0
    3.8325    0.8833   -0.9988 H   0  0  0  0  0  0  0  0  0  0  0  0
    3.9384    3.0055   -1.3016 H   0  0  0  0  0  0  0  0  0  0  0  0
  1  2  1  0  0  0  0
  1  3  1  0  0  0  0
  2  4  1  0  0  0  0
  3  5  1  0  0  0  0
  4  6  1  0  0  0  0
  5  6  1  0  0  0  0
  6  7  1  0  0  0  0
  1  8  1  0  0  0  0
  1  9  1  0  0  0  0
  2 10  1  0  0  0  0
  2 11  1  0  0  0  0
  3 12  1  0  0  0  0
  3 13  1  0  0  0  0
  4 14  1  0  0  0  0
  4 15  1  0  0  0  0
  5 16  1  0  0  0  0
  5 17  1  0  0  0  0
  6 18  1  0  0  0  0
  7 19  1  0  0  0  0
M  END
$$$$
