CUP08013_AM1BCC_v1_0
  -OEChem-10241310023D

 27 27  0     1  0  0  0  0  0999 V2000
   -6.3828   -4.2597   -5.5711 C   0  0  0  0  0  0  0  0  0  0  0  0
   -5.3319   -5.0928   -5.4924 C   0  0  0  0  0  0  0  0  0  0  0  0
   -6.3447   -2.9817   -4.7810 C   0  0  0  0  0  0  0  0  0  0  0  0
   -4.1546   -3.6354   -3.9389 C   0  0  0  0  0  0  0  0  0  0  0  0
   -5.1875   -6.4068   -6.2114 C   0  0  0  0  0  0  0  0  0  0  0  0
   -6.2982   -2.5678   -1.1471 C   0  0  0  0  0  0  0  0  0  0  0  0
   -5.0452   -0.2787   -4.0479 C   0  0  0  0  0  0  0  0  0  0  0  0
   -6.2576   -1.3962   -2.1193 C   0  0  0  0  0  0  0  0  0  0  0  0
   -5.1353   -1.5314   -3.1687 C   0  0  1  0  0  0  0  0  0  0  0  0
   -4.2639   -4.7629   -4.6994 N   0  0  0  0  0  0  0  0  0  0  0  0
   -5.2276   -2.7621   -3.9792 N   0  0  0  0  0  0  0  0  0  0  0  0
   -7.2791   -2.1842   -4.8650 O   0  0  0  0  0  0  0  0  0  0  0  0
   -3.1315   -3.4690   -3.2781 O   0  0  0  0  0  0  0  0  0  0  0  0
   -7.9090   -4.5740   -6.6099 Br  0  0  0  0  0  0  0  0  0  0  0  0
   -4.3004   -6.3876   -6.8543 H   0  0  0  0  0  0  0  0  0  0  0  0
   -6.0399   -6.6621   -6.8447 H   0  0  0  0  0  0  0  0  0  0  0  0
   -5.0664   -7.2199   -5.4869 H   0  0  0  0  0  0  0  0  0  0  0  0
   -5.3343   -2.6943   -0.6445 H   0  0  0  0  0  0  0  0  0  0  0  0
   -7.0594   -2.3931   -0.3800 H   0  0  0  0  0  0  0  0  0  0  0  0
   -6.5474   -3.5029   -1.6576 H   0  0  0  0  0  0  0  0  0  0  0  0
   -5.9743   -0.0828   -4.5908 H   0  0  0  0  0  0  0  0  0  0  0  0
   -4.8293    0.6042   -3.4366 H   0  0  0  0  0  0  0  0  0  0  0  0
   -4.2422   -0.3816   -4.7858 H   0  0  0  0  0  0  0  0  0  0  0  0
   -7.2392   -1.2912   -2.5920 H   0  0  0  0  0  0  0  0  0  0  0  0
   -6.0956   -0.4765   -1.5431 H   0  0  0  0  0  0  0  0  0  0  0  0
   -4.1957   -1.5596   -2.6031 H   0  0  0  0  0  0  0  0  0  0  0  0
   -3.4622   -5.3822   -4.6391 H   0  0  0  0  0  0  0  0  0  0  0  0
  1  2  2  0  0  0  0
  1  3  1  0  0  0  0
  1 14  1  0  0  0  0
  2  5  1  0  0  0  0
  2 10  1  0  0  0  0
  3 11  1  0  0  0  0
  3 12  2  0  0  0  0
  4 10  1  0  0  0  0
  4 11  1  0  0  0  0
  4 13  2  0  0  0  0
  6  8  1  0  0  0  0
  7  9  1  0  0  0  0
  8  9  1  0  0  0  0
  9 11  1  0  0  0  0
  5 15  1  0  0  0  0
  5 16  1  0  0  0  0
  5 17  1  0  0  0  0
  6 18  1  0  0  0  0
  6 19  1  0  0  0  0
  6 20  1  0  0  0  0
  7 21  1  0  0  0  0
  7 22  1  0  0  0  0
  7 23  1  0  0  0  0
  8 24  1  0  0  0  0
  8 25  1  0  0  0  0
  9 26  1  0  0  0  0
 10 27  1  0  0  0  0
M  END
$$$$
