acetaldehyde
  -OEChem-10241310023D

  7  6  0     0  0  0  0  0  0999 V2000
   -1.5033   -0.9603    1.1512 C   0  0  0  0  0  0  0  0  0  0  0  0
   -0.5886   -0.9197   -0.0340 C   0  0  0  0  0  0  0  0  0  0  0  0
   -1.4762   -1.8492    1.9958 O   0  0  0  0  0  0  0  0  0  0  0  0
   -2.2225   -0.1273    1.2270 H   0  0  0  0  0  0  0  0  0  0  0  0
    0.0000    0.0000    0.0000 H   0  0  0  0  0  0  0  0  0  0  0  0
    0.0827   -1.7818   -0.0193 H   0  0  0  0  0  0  0  0  0  0  0  0
   -1.1866   -0.9399   -0.9480 H   0  0  0  0  0  0  0  0  0  0  0  0
  1  2  1  0  0  0  0
  1  3  2  0  0  0  0
  1  4  1  0  0  0  0
  2  5  1  0  0  0  0
  2  6  1  0  0  0  0
  2  7  1  0  0  0  0
M  END
$$$$
