ethylamine
  -OEChem-10241310023D

 10  9  0     0  0  0  0  0  0999 V2000
   -0.2605    0.7905    0.7119 C   0  0  0  0  0  0  0  0  0  0  0  0
    0.0815    0.3848    2.1354 C   0  0  0  0  0  0  0  0  0  0  0  0
    1.5069    0.1164    2.2786 N   0  0  0  0  0  0  0  0  0  0  0  0
    0.2716    1.7026    0.4212 H   0  0  0  0  0  0  0  0  0  0  0  0
    0.0000    0.0000   -0.0000 H   0  0  0  0  0  0  0  0  0  0  0  0
   -1.3344    0.9839    0.6226 H   0  0  0  0  0  0  0  0  0  0  0  0
   -0.4834   -0.5110    2.4131 H   0  0  0  0  0  0  0  0  0  0  0  0
   -0.2063    1.1819    2.8287 H   0  0  0  0  0  0  0  0  0  0  0  0
    2.0104    0.5793    1.5253 H   0  0  0  0  0  0  0  0  0  0  0  0
    1.6713   -0.8810    2.1640 H   0  0  0  0  0  0  0  0  0  0  0  0
  1  2  1  0  0  0  0
  2  3  1  0  0  0  0
  1  4  1  0  0  0  0
  1  5  1  0  0  0  0
  1  6  1  0  0  0  0
  2  7  1  0  0  0  0
  2  8  1  0  0  0  0
  3  9  1  0  0  0  0
  3 10  1  0  0  0  0
M  END
$$$$
