diethylamine
  -OEChem-10241310033D

 16 15  0     0  0  0  0  0  0999 V2000
   -0.6400    0.2434    3.4650 C   0  0  0  0  0  0  0  0  0  0  0  0
    3.6761   -0.0439    1.1397 C   0  0  0  0  0  0  0  0  0  0  0  0
    0.0815    0.3848    2.1354 C   0  0  0  0  0  0  0  0  0  0  0  0
    2.1909    0.2437    0.9992 C   0  0  0  0  0  0  0  0  0  0  0  0
    1.5069    0.1164    2.2786 N   0  0  0  0  0  0  0  0  0  0  0  0
   -0.5399   -0.7716    3.8640 H   0  0  0  0  0  0  0  0  0  0  0  0
   -0.2447    0.9444    4.2079 H   0  0  0  0  0  0  0  0  0  0  0  0
   -1.7072    0.4522    3.3389 H   0  0  0  0  0  0  0  0  0  0  0  0
    4.1517    0.6584    1.8326 H   0  0  0  0  0  0  0  0  0  0  0  0
    3.8508   -1.0604    1.5081 H   0  0  0  0  0  0  0  0  0  0  0  0
    4.1723    0.0526    0.1686 H   0  0  0  0  0  0  0  0  0  0  0  0
   -0.0568    1.3973    1.7427 H   0  0  0  0  0  0  0  0  0  0  0  0
   -0.3445   -0.3111    1.4053 H   0  0  0  0  0  0  0  0  0  0  0  0
    1.7436   -0.4510    0.2809 H   0  0  0  0  0  0  0  0  0  0  0  0
    2.0433    1.2568    0.6111 H   0  0  0  0  0  0  0  0  0  0  0  0
    1.9074    0.7795    2.9412 H   0  0  0  0  0  0  0  0  0  0  0  0
  1  3  1  0  0  0  0
  2  4  1  0  0  0  0
  3  5  1  0  0  0  0
  4  5  1  0  0  0  0
  1  6  1  0  0  0  0
  1  7  1  0  0  0  0
  1  8  1  0  0  0  0
  2  9  1  0  0  0  0
  2 10  1  0  0  0  0
  2 11  1  0  0  0  0
  3 12  1  0  0  0  0
  3 13  1  0  0  0  0
  4 14  1  0  0  0  0
  4 15  1  0  0  0  0
  5 16  1  0  0  0  0
M  END
$$$$
