di_n_propylamine
  -OEChem-10241310023D

 22 21  0     0  0  0  0  0  0999 V2000
   -1.5498   -1.2782    0.9741 C   0  0  0  0  0  0  0  0  0  0  0  0
    3.4123    0.6160    6.1742 C   0  0  0  0  0  0  0  0  0  0  0  0
   -1.3233   -0.8631    2.4196 C   0  0  0  0  0  0  0  0  0  0  0  0
    1.9484    0.3578    5.8524 C   0  0  0  0  0  0  0  0  0  0  0  0
    0.1575   -0.6240    2.7038 C   0  0  0  0  0  0  0  0  0  0  0  0
    1.7608   -0.0265    4.3870 C   0  0  0  0  0  0  0  0  0  0  0  0
    0.3507   -0.2480    4.0992 N   0  0  0  0  0  0  0  0  0  0  0  0
   -1.2015   -0.5029    0.2842 H   0  0  0  0  0  0  0  0  0  0  0  0
   -1.0175   -2.2069    0.7445 H   0  0  0  0  0  0  0  0  0  0  0  0
   -2.6159   -1.4431    0.7896 H   0  0  0  0  0  0  0  0  0  0  0  0
    4.0185   -0.2759    5.9857 H   0  0  0  0  0  0  0  0  0  0  0  0
    3.8089    1.4358    5.5666 H   0  0  0  0  0  0  0  0  0  0  0  0
    3.5266    0.8880    7.2281 H   0  0  0  0  0  0  0  0  0  0  0  0
   -1.7118   -1.6465    3.0815 H   0  0  0  0  0  0  0  0  0  0  0  0
   -1.8988    0.0480    2.6236 H   0  0  0  0  0  0  0  0  0  0  0  0
    1.3676    1.2592    6.0825 H   0  0  0  0  0  0  0  0  0  0  0  0
    1.5758   -0.4425    6.5033 H   0  0  0  0  0  0  0  0  0  0  0  0
    0.5443    0.1709    2.0566 H   0  0  0  0  0  0  0  0  0  0  0  0
    0.7329   -1.5326    2.4962 H   0  0  0  0  0  0  0  0  0  0  0  0
    2.3254   -0.9371    4.1584 H   0  0  0  0  0  0  0  0  0  0  0  0
    2.1367    0.7709    3.7368 H   0  0  0  0  0  0  0  0  0  0  0  0
   -0.1700    0.6072    4.2899 H   0  0  0  0  0  0  0  0  0  0  0  0
  1  3  1  0  0  0  0
  2  4  1  0  0  0  0
  3  5  1  0  0  0  0
  4  6  1  0  0  0  0
  5  7  1  0  0  0  0
  6  7  1  0  0  0  0
  1  8  1  0  0  0  0
  1  9  1  0  0  0  0
  1 10  1  0  0  0  0
  2 11  1  0  0  0  0
  2 12  1  0  0  0  0
  2 13  1  0  0  0  0
  3 14  1  0  0  0  0
  3 15  1  0  0  0  0
  4 16  1  0  0  0  0
  4 17  1  0  0  0  0
  5 18  1  0  0  0  0
  5 19  1  0  0  0  0
  6 20  1  0  0  0  0
  6 21  1  0  0  0  0
  7 22  1  0  0  0  0
M  END
$$$$
