SAMPL4_039
  -OEChem-10241310023D

 21 21  0     0  0  0  0  0  0999 V2000
    3.2580   -1.9340    0.4980 C   0  0  0  0  0  0  0  0  0  0  0  0
    2.3340   -1.2760   -0.3140 C   0  0  0  0  0  0  0  0  0  0  0  0
    3.1420   -1.8620    1.8860 C   0  0  0  0  0  0  0  0  0  0  0  0
    1.2950   -0.5460    0.2620 C   0  0  0  0  0  0  0  0  0  0  0  0
    2.1030   -1.1310    2.4630 C   0  0  0  0  0  0  0  0  0  0  0  0
    1.1790   -0.4730    1.6510 C   0  0  0  0  0  0  0  0  0  0  0  0
    1.9980   -1.0690    3.9510 C   0  0  0  0  0  0  0  0  0  0  0  0
   -1.0670   -0.5770    2.7590 C   0  0  0  0  0  0  0  0  0  0  0  0
    0.0590    0.3150    2.2450 C   0  0  0  0  0  0  0  0  0  0  0  0
    4.0670   -2.5020    0.0490 H   0  0  0  0  0  0  0  0  0  0  0  0
    2.4250   -1.3320   -1.3950 H   0  0  0  0  0  0  0  0  0  0  0  0
    3.8680   -2.3770    2.5100 H   0  0  0  0  0  0  0  0  0  0  0  0
    0.5800   -0.0370   -0.3790 H   0  0  0  0  0  0  0  0  0  0  0  0
    2.5650   -0.2130    4.3360 H   0  0  0  0  0  0  0  0  0  0  0  0
    0.9540   -0.9690    4.2710 H   0  0  0  0  0  0  0  0  0  0  0  0
    2.3880   -1.9840    4.4150 H   0  0  0  0  0  0  0  0  0  0  0  0
   -1.4600   -1.2150    1.9600 H   0  0  0  0  0  0  0  0  0  0  0  0
   -1.8940    0.0290    3.1450 H   0  0  0  0  0  0  0  0  0  0  0  0
   -0.7160   -1.2270    3.5670 H   0  0  0  0  0  0  0  0  0  0  0  0
    0.4290    0.9430    3.0710 H   0  0  0  0  0  0  0  0  0  0  0  0
   -0.3480    1.0190    1.5020 H   0  0  0  0  0  0  0  0  0  0  0  0
  1  2  2  0  0  0  0
  1  3  1  0  0  0  0
  2  4  1  0  0  0  0
  3  5  2  0  0  0  0
  4  6  2  0  0  0  0
  5  6  1  0  0  0  0
  5  7  1  0  0  0  0
  6  9  1  0  0  0  0
  8  9  1  0  0  0  0
  1 10  1  0  0  0  0
  2 11  1  0  0  0  0
  3 12  1  0  0  0  0
  4 13  1  0  0  0  0
  7 14  1  0  0  0  0
  7 15  1  0  0  0  0
  7 16  1  0  0  0  0
  8 17  1  0  0  0  0
  8 18  1  0  0  0  0
  8 19  1  0  0  0  0
  9 20  1  0  0  0  0
  9 21  1  0  0  0  0
M  END
$$$$
