2_propoxyethanol
  -OEChem-10241310033D

 19 18  0     0  0  0  0  0  0999 V2000
   -0.0095   -0.6551    0.8768 C   0  0  0  0  0  0  0  0  0  0  0  0
    1.2444   -0.4434    1.7060 C   0  0  0  0  0  0  0  0  0  0  0  0
    1.2749   -1.3494    2.9273 C   0  0  0  0  0  0  0  0  0  0  0  0
    3.8457   -1.6035    5.5465 C   0  0  0  0  0  0  0  0  0  0  0  0
    2.5499   -1.9092    4.8204 C   0  0  0  0  0  0  0  0  0  0  0  0
    4.9400   -1.8943    4.6855 O   0  0  0  0  0  0  0  0  0  0  0  0
    2.4629   -1.0899    3.6622 O   0  0  0  0  0  0  0  0  0  0  0  0
   -0.9084   -0.4406    1.4638 H   0  0  0  0  0  0  0  0  0  0  0  0
   -0.0059    0.0088    0.0067 H   0  0  0  0  0  0  0  0  0  0  0  0
   -0.0721   -1.6868    0.5167 H   0  0  0  0  0  0  0  0  0  0  0  0
    1.3083    0.6043    2.0234 H   0  0  0  0  0  0  0  0  0  0  0  0
    2.1333   -0.6260    1.0902 H   0  0  0  0  0  0  0  0  0  0  0  0
    0.4147   -1.1588    3.5770 H   0  0  0  0  0  0  0  0  0  0  0  0
    1.2712   -2.4035    2.6320 H   0  0  0  0  0  0  0  0  0  0  0  0
    3.9478   -2.2175    6.4466 H   0  0  0  0  0  0  0  0  0  0  0  0
    3.8933   -0.5442    5.8153 H   0  0  0  0  0  0  0  0  0  0  0  0
    1.6829   -1.6969    5.4539 H   0  0  0  0  0  0  0  0  0  0  0  0
    2.5267   -2.9556    4.5025 H   0  0  0  0  0  0  0  0  0  0  0  0
    5.5115   -2.5178    5.1615 H   0  0  0  0  0  0  0  0  0  0  0  0
  1  2  1  0  0  0  0
  2  3  1  0  0  0  0
  3  7  1  0  0  0  0
  4  5  1  0  0  0  0
  4  6  1  0  0  0  0
  5  7  1  0  0  0  0
  1  8  1  0  0  0  0
  1  9  1  0  0  0  0
  1 10  1  0  0  0  0
  2 11  1  0  0  0  0
  2 12  1  0  0  0  0
  3 13  1  0  0  0  0
  3 14  1  0  0  0  0
  4 15  1  0  0  0  0
  4 16  1  0  0  0  0
  5 17  1  0  0  0  0
  5 18  1  0  0  0  0
  6 19  1  0  0  0  0
M  END
$$$$
