fluoromethane
  -OEChem-10241310043D

  5  4  0     0  0  0  0  0  0999 V2000
   -0.4408    0.7983   -0.6005 C   0  0  0  0  0  0  0  0  0  0  0  0
   -1.2210    1.5665    0.2006 F   0  0  0  0  0  0  0  0  0  0  0  0
    0.3443    1.4239   -1.0299 H   0  0  0  0  0  0  0  0  0  0  0  0
    0.0000   -0.0000    0.0000 H   0  0  0  0  0  0  0  0  0  0  0  0
   -1.0610    0.3750   -1.3930 H   0  0  0  0  0  0  0  0  0  0  0  0
  1  2  1  0  0  0  0
  1  3  1  0  0  0  0
  1  4  1  0  0  0  0
  1  5  1  0  0  0  0
M  END
$$$$
