4_bromotoluene
  -OEChem-10241310033D

 15 15  0     0  0  0  0  0  0999 V2000
    0.8178   -0.4385    0.5644 C   0  0  0  0  0  0  0  0  0  0  0  0
    2.9371   -1.5972    0.6197 C   0  0  0  0  0  0  0  0  0  0  0  0
    0.7994   -0.4058    1.9588 C   0  0  0  0  0  0  0  0  0  0  0  0
    2.9185   -1.5646    2.0141 C   0  0  0  0  0  0  0  0  0  0  0  0
    1.8867   -1.0341   -0.1051 C   0  0  0  0  0  0  0  0  0  0  0  0
    1.8497   -0.9689    2.6836 C   0  0  0  0  0  0  0  0  0  0  0  0
    1.9078   -1.0696   -1.5956 C   0  0  0  0  0  0  0  0  0  0  0  0
    1.8251   -0.9242    4.5729 Br  0  0  0  0  0  0  0  0  0  0  0  0
   -0.0047    0.0033    0.0082 H   0  0  0  0  0  0  0  0  0  0  0  0
    3.7740   -2.0640    0.1072 H   0  0  0  0  0  0  0  0  0  0  0  0
   -0.0409    0.0616    2.4658 H   0  0  0  0  0  0  0  0  0  0  0  0
    3.7452   -2.0071    2.5639 H   0  0  0  0  0  0  0  0  0  0  0  0
    2.1041   -2.0887   -1.9510 H   0  0  0  0  0  0  0  0  0  0  0  0
    0.9512   -0.7330   -2.0161 H   0  0  0  0  0  0  0  0  0  0  0  0
    2.6831   -0.4052   -1.9993 H   0  0  0  0  0  0  0  0  0  0  0  0
  1  3  1  0  0  0  0
  1  5  2  0  0  0  0
  2  4  2  0  0  0  0
  2  5  1  0  0  0  0
  3  6  2  0  0  0  0
  4  6  1  0  0  0  0
  5  7  1  0  0  0  0
  6  8  1  0  0  0  0
  1  9  1  0  0  0  0
  2 10  1  0  0  0  0
  3 11  1  0  0  0  0
  4 12  1  0  0  0  0
  7 13  1  0  0  0  0
  7 14  1  0  0  0  0
  7 15  1  0  0  0  0
M  END
$$$$
