CUP08006_AM1BCC_v1_0
  -OEChem-10241310033D

 12 11  0     0  0  0  0  0  0999 V2000
   -0.9113    0.4611    0.4455 C   0  0  0  0  0  0  0  0  0  0  0  0
   -2.1636   -0.1864   -0.1368 C   0  0  0  0  0  0  0  0  0  0  0  0
   -4.5177    0.0001   -0.1376 N   0  3  0  0  0  0  0  0  0  0  0  0
   -5.5026    0.5995    0.2901 O   0  5  0  0  0  0  0  0  0  0  0  0
   -4.4509   -0.9568   -0.9114 O   0  0  0  0  0  0  0  0  0  0  0  0
   -0.7323    1.7554   -0.1227 O   0  0  0  0  0  0  0  0  0  0  0  0
   -3.3028    0.4997    0.3824 O   0  0  0  0  0  0  0  0  0  0  0  0
   -0.0275   -0.1383    0.2086 H   0  0  0  0  0  0  0  0  0  0  0  0
   -0.9992    0.5750    1.5307 H   0  0  0  0  0  0  0  0  0  0  0  0
   -2.1943   -1.2385    0.1696 H   0  0  0  0  0  0  0  0  0  0  0  0
   -2.1405   -0.1017   -1.2300 H   0  0  0  0  0  0  0  0  0  0  0  0
    0.0366    2.1607    0.3154 H   0  0  0  0  0  0  0  0  0  0  0  0
  1  2  1  0  0  0  0
  1  6  1  0  0  0  0
  2  7  1  0  0  0  0
  3  4  1  0  0  0  0
  3  5  2  0  0  0  0
  3  7  1  0  0  0  0
  1  8  1  0  0  0  0
  1  9  1  0  0  0  0
  2 10  1  0  0  0  0
  2 11  1  0  0  0  0
  6 12  1  0  0  0  0
M  CHG  2   3   1   4  -1
M  END
$$$$
