135_trimethylbenzene
  -OEChem-10241310023D

 21 21  0     0  0  0  0  0  0999 V2000
    1.8994   -1.0130   -0.0784 C   0  0  0  0  0  0  0  0  0  0  0  0
    0.8129   -0.3274    1.9678 C   0  0  0  0  0  0  0  0  0  0  0  0
    2.9471   -1.4565    2.0530 C   0  0  0  0  0  0  0  0  0  0  0  0
    0.8258   -0.4081    0.5753 C   0  0  0  0  0  0  0  0  0  0  0  0
    2.9600   -1.5372    0.6605 C   0  0  0  0  0  0  0  0  0  0  0  0
    1.8736   -0.8516    2.7066 C   0  0  0  0  0  0  0  0  0  0  0  0
   -0.3076    0.1530   -0.2153 C   0  0  0  0  0  0  0  0  0  0  0  0
    4.1077   -2.1844   -0.0386 C   0  0  0  0  0  0  0  0  0  0  0  0
    1.8596   -0.7651    4.1956 C   0  0  0  0  0  0  0  0  0  0  0  0
    1.9097   -1.0760   -1.1642 H   0  0  0  0  0  0  0  0  0  0  0  0
   -0.0237    0.1452    2.4769 H   0  0  0  0  0  0  0  0  0  0  0  0
    3.7745   -1.8646    2.6287 H   0  0  0  0  0  0  0  0  0  0  0  0
   -1.1955   -0.4831   -0.1142 H   0  0  0  0  0  0  0  0  0  0  0  0
   -0.5650    1.1657    0.1209 H   0  0  0  0  0  0  0  0  0  0  0  0
   -0.0521    0.2272   -1.2804 H   0  0  0  0  0  0  0  0  0  0  0  0
    4.8777   -2.4798    0.6845 H   0  0  0  0  0  0  0  0  0  0  0  0
    3.7861   -3.0779   -0.5891 H   0  0  0  0  0  0  0  0  0  0  0  0
    4.5613   -1.5053   -0.7722 H   0  0  0  0  0  0  0  0  0  0  0  0
    2.7703   -0.2730    4.5580 H   0  0  0  0  0  0  0  0  0  0  0  0
    0.9911   -0.1970    4.5534 H   0  0  0  0  0  0  0  0  0  0  0  0
    1.7972   -1.7616    4.6518 H   0  0  0  0  0  0  0  0  0  0  0  0
  1  4  1  0  0  0  0
  1  5  2  0  0  0  0
  2  4  2  0  0  0  0
  2  6  1  0  0  0  0
  3  5  1  0  0  0  0
  3  6  2  0  0  0  0
  4  7  1  0  0  0  0
  5  8  1  0  0  0  0
  6  9  1  0  0  0  0
  1 10  1  0  0  0  0
  2 11  1  0  0  0  0
  3 12  1  0  0  0  0
  7 13  1  0  0  0  0
  7 14  1  0  0  0  0
  7 15  1  0  0  0  0
  8 16  1  0  0  0  0
  8 17  1  0  0  0  0
  8 18  1  0  0  0  0
  9 19  1  0  0  0  0
  9 20  1  0  0  0  0
  9 21  1  0  0  0  0
M  END
$$$$
