1-chlorodibenzo-p-dioxin
  -OEChem-10241310033D

 22 24  0     0  0  0  0  0  0999 V2000
   -1.8584    0.7400    0.8000 C   0  0  0  0  0  0  0  0  0  0  0  0
   -1.0039   -0.2568    0.3257 C   0  0  0  0  0  0  0  0  0  0  0  0
   -6.9616   -4.1465    1.8755 C   0  0  0  0  0  0  0  0  0  0  0  0
   -3.1487    0.4152    1.2196 C   0  0  0  0  0  0  0  0  0  0  0  0
   -1.4367   -1.5819    0.2693 C   0  0  0  0  0  0  0  0  0  0  0  0
   -6.5287   -2.8214    1.9320 C   0  0  0  0  0  0  0  0  0  0  0  0
   -6.1071   -5.1433    1.4010 C   0  0  0  0  0  0  0  0  0  0  0  0
   -3.5799   -0.9097    1.1626 C   0  0  0  0  0  0  0  0  0  0  0  0
   -2.7266   -1.9051    0.6889 C   0  0  0  0  0  0  0  0  0  0  0  0
   -5.2389   -2.4982    1.5123 C   0  0  0  0  0  0  0  0  0  0  0  0
   -4.3856   -3.4936    1.0385 C   0  0  0  0  0  0  0  0  0  0  0  0
   -4.8168   -4.8184    0.9815 C   0  0  0  0  0  0  0  0  0  0  0  0
   -4.8561   -1.1828    1.5855 O   0  0  0  0  0  0  0  0  0  0  0  0
   -3.1093   -3.2205    0.6157 O   0  0  0  0  0  0  0  0  0  0  0  0
   -3.7901   -6.0785    0.4013 Cl  0  0  0  0  0  0  0  0  0  0  0  0
   -1.5175    1.7706    0.8425 H   0  0  0  0  0  0  0  0  0  0  0  0
    0.0000   -0.0001    0.0001 H   0  0  0  0  0  0  0  0  0  0  0  0
   -7.9656   -4.4030    2.2010 H   0  0  0  0  0  0  0  0  0  0  0  0
   -3.8082    1.1963    1.5873 H   0  0  0  0  0  0  0  0  0  0  0  0
   -0.7663   -2.3523   -0.1008 H   0  0  0  0  0  0  0  0  0  0  0  0
   -7.1995   -2.0508    2.3017 H   0  0  0  0  0  0  0  0  0  0  0  0
   -6.4633   -6.1698    1.3647 H   0  0  0  0  0  0  0  0  0  0  0  0
  1  2  2  0  0  0  0
  1  4  1  0  0  0  0
  2  5  1  0  0  0  0
  3  6  2  0  0  0  0
  3  7  1  0  0  0  0
  4  8  2  0  0  0  0
  5  9  2  0  0  0  0
  6 10  1  0  0  0  0
  7 12  2  0  0  0  0
  8  9  1  0  0  0  0
  8 13  1  0  0  0  0
  9 14  1  0  0  0  0
 10 11  2  0  0  0  0
 10 13  1  0  0  0  0
 11 12  1  0  0  0  0
 11 14  1  0  0  0  0
 12 15  1  0  0  0  0
  1 16  1  0  0  0  0
  2 17  1  0  0  0  0
  3 18  1  0  0  0  0
  4 19  1  0  0  0  0
  5 20  1  0  0  0  0
  6 21  1  0  0  0  0
  7 22  1  0  0  0  0
M  END
$$$$
