35_dimethylphenol
  -OEChem-10241310033D

 19 19  0     0  0  0  0  0  0999 V2000
    1.8994   -1.0130   -0.0784 C   0  0  0  0  0  0  0  0  0  0  0  0
    0.8129   -0.3274    1.9678 C   0  0  0  0  0  0  0  0  0  0  0  0
    2.9471   -1.4565    2.0530 C   0  0  0  0  0  0  0  0  0  0  0  0
    0.8258   -0.4081    0.5753 C   0  0  0  0  0  0  0  0  0  0  0  0
    2.9600   -1.5372    0.6605 C   0  0  0  0  0  0  0  0  0  0  0  0
    1.8736   -0.8516    2.7066 C   0  0  0  0  0  0  0  0  0  0  0  0
   -0.3082    0.1510   -0.2152 C   0  0  0  0  0  0  0  0  0  0  0  0
    4.1072   -2.1841   -0.0391 C   0  0  0  0  0  0  0  0  0  0  0  0
    1.8608   -0.7727    4.0656 O   0  0  0  0  0  0  0  0  0  0  0  0
    1.9100   -1.0757   -1.1641 H   0  0  0  0  0  0  0  0  0  0  0  0
   -0.0228    0.1428    2.4800 H   0  0  0  0  0  0  0  0  0  0  0  0
    3.7724   -1.8643    2.6316 H   0  0  0  0  0  0  0  0  0  0  0  0
   -1.1955   -0.4859   -0.1137 H   0  0  0  0  0  0  0  0  0  0  0  0
   -0.5669    1.1638    0.1202 H   0  0  0  0  0  0  0  0  0  0  0  0
   -0.0533    0.2250   -1.2806 H   0  0  0  0  0  0  0  0  0  0  0  0
    4.8775   -2.4801    0.6835 H   0  0  0  0  0  0  0  0  0  0  0  0
    3.7856   -3.0773   -0.5902 H   0  0  0  0  0  0  0  0  0  0  0  0
    4.5609   -1.5047   -0.7726 H   0  0  0  0  0  0  0  0  0  0  0  0
    1.1904   -0.1192    4.3364 H   0  0  0  0  0  0  0  0  0  0  0  0
  1  4  1  0  0  0  0
  1  5  2  0  0  0  0
  2  4  2  0  0  0  0
  2  6  1  0  0  0  0
  3  5  1  0  0  0  0
  3  6  2  0  0  0  0
  4  7  1  0  0  0  0
  5  8  1  0  0  0  0
  6  9  1  0  0  0  0
  1 10  1  0  0  0  0
  2 11  1  0  0  0  0
  3 12  1  0  0  0  0
  7 13  1  0  0  0  0
  7 14  1  0  0  0  0
  7 15  1  0  0  0  0
  8 16  1  0  0  0  0
  8 17  1  0  0  0  0
  8 18  1  0  0  0  0
  9 19  1  0  0  0  0
M  END
$$$$
