SAMPL4_045
  -OEChem-10241310033D

 26 28  0     0  0  0  0  0  0999 V2000
    1.2900   -1.6870   -0.3520 C   0  0  0  0  0  0  0  0  0  0  0  0
    0.9560   -0.4630    0.2260 C   0  0  0  0  0  0  0  0  0  0  0  0
    2.5180   -2.2840   -0.0640 C   0  0  0  0  0  0  0  0  0  0  0  0
    1.8480    0.1680    1.0930 C   0  0  0  0  0  0  0  0  0  0  0  0
    6.8850   -2.2140    2.3150 C   0  0  0  0  0  0  0  0  0  0  0  0
    7.7770   -1.5830    3.1820 C   0  0  0  0  0  0  0  0  0  0  0  0
    6.2150    0.2380    3.4720 C   0  0  0  0  0  0  0  0  0  0  0  0
    3.4160   -1.6540    0.8060 C   0  0  0  0  0  0  0  0  0  0  0  0
    3.0810   -0.4280    1.3840 C   0  0  0  0  0  0  0  0  0  0  0  0
    5.6520   -1.6180    2.0240 C   0  0  0  0  0  0  0  0  0  0  0  0
    5.3170   -0.3920    2.6020 C   0  0  0  0  0  0  0  0  0  0  0  0
    7.4420   -0.3590    3.7590 C   0  0  0  0  0  0  0  0  0  0  0  0
    4.7130   -2.2940    1.1040 C   0  0  0  0  0  0  0  0  0  0  0  0
    4.0190    0.2480    2.3040 C   0  0  0  0  0  0  0  0  0  0  0  0
    8.3470    0.2760    4.6360 N   0  0  0  0  0  0  0  0  0  0  0  0
    5.0070   -3.3690    0.5970 O   0  0  0  0  0  0  0  0  0  0  0  0
    3.7250    1.3230    2.8100 O   0  0  0  0  0  0  0  0  0  0  0  0
    0.5940   -2.1770   -1.0250 H   0  0  0  0  0  0  0  0  0  0  0  0
   -0.0010   -0.0010    0.0010 H   0  0  0  0  0  0  0  0  0  0  0  0
    2.7550   -3.2380   -0.5270 H   0  0  0  0  0  0  0  0  0  0  0  0
    1.5650    1.1220    1.5300 H   0  0  0  0  0  0  0  0  0  0  0  0
    7.1690   -3.1680    1.8780 H   0  0  0  0  0  0  0  0  0  0  0  0
    8.7310   -2.0550    3.4020 H   0  0  0  0  0  0  0  0  0  0  0  0
    5.9680    1.1940    3.9300 H   0  0  0  0  0  0  0  0  0  0  0  0
    9.2030   -0.1840    4.8720 H   0  0  0  0  0  0  0  0  0  0  0  0
    8.0760    1.1300    5.0810 H   0  0  0  0  0  0  0  0  0  0  0  0
  1  2  2  0  0  0  0
  1  3  1  0  0  0  0
  2  4  1  0  0  0  0
  3  8  2  0  0  0  0
  4  9  2  0  0  0  0
  5  6  2  0  0  0  0
  5 10  1  0  0  0  0
  6 12  1  0  0  0  0
  7 11  1  0  0  0  0
  7 12  2  0  0  0  0
  8  9  1  0  0  0  0
  8 13  1  0  0  0  0
  9 14  1  0  0  0  0
 10 11  2  0  0  0  0
 10 13  1  0  0  0  0
 11 14  1  0  0  0  0
 12 15  1  0  0  0  0
 13 16  2  0  0  0  0
 14 17  2  0  0  0  0
  1 18  1  0  0  0  0
  2 19  1  0  0  0  0
  3 20  1  0  0  0  0
  4 21  1  0  0  0  0
  5 22  1  0  0  0  0
  6 23  1  0  0  0  0
  7 24  1  0  0  0  0
 15 25  1  0  0  0  0
 15 26  1  0  0  0  0
M  END
$$$$
