octan_2_one
  -OEChem-10241310043D

 25 24  0     0  0  0  0  0  0999 V2000
   -0.0533    0.1305   -3.3788 C   0  0  0  0  0  0  0  0  0  0  0  0
    1.3369   -0.0328   -3.9349 C   0  0  0  0  0  0  0  0  0  0  0  0
   -5.2555    4.0627    0.4848 C   0  0  0  0  0  0  0  0  0  0  0  0
   -0.3397    1.3740   -2.5612 C   0  0  0  0  0  0  0  0  0  0  0  0
   -3.8142    4.0259    0.0022 C   0  0  0  0  0  0  0  0  0  0  0  0
   -1.7622    1.4114   -2.0114 C   0  0  0  0  0  0  0  0  0  0  0  0
   -3.5023    2.7214   -0.7309 C   0  0  0  0  0  0  0  0  0  0  0  0
   -2.0608    2.7023   -1.2439 C   0  0  0  0  0  0  0  0  0  0  0  0
   -0.9289   -0.7080   -3.5935 O   0  0  0  0  0  0  0  0  0  0  0  0
    1.4679   -1.0567   -4.2964 H   0  0  0  0  0  0  0  0  0  0  0  0
    1.4884    0.6601   -4.7652 H   0  0  0  0  0  0  0  0  0  0  0  0
    2.0736    0.1514   -3.1490 H   0  0  0  0  0  0  0  0  0  0  0  0
   -5.4575    3.2411    1.1793 H   0  0  0  0  0  0  0  0  0  0  0  0
   -5.9528    3.9822   -0.3551 H   0  0  0  0  0  0  0  0  0  0  0  0
   -5.4574    5.0044    1.0048 H   0  0  0  0  0  0  0  0  0  0  0  0
   -0.1602    2.2444   -3.2027 H   0  0  0  0  0  0  0  0  0  0  0  0
    0.3889    1.4292   -1.7441 H   0  0  0  0  0  0  0  0  0  0  0  0
   -3.6360    4.8787   -0.6630 H   0  0  0  0  0  0  0  0  0  0  0  0
   -3.1441    4.1395    0.8621 H   0  0  0  0  0  0  0  0  0  0  0  0
   -1.9417    0.5473   -1.3614 H   0  0  0  0  0  0  0  0  0  0  0  0
   -2.4606    1.3249   -2.8528 H   0  0  0  0  0  0  0  0  0  0  0  0
   -3.6628    1.8726   -0.0550 H   0  0  0  0  0  0  0  0  0  0  0  0
   -4.1941    2.5992   -1.5734 H   0  0  0  0  0  0  0  0  0  0  0  0
   -1.3735    2.8005   -0.3954 H   0  0  0  0  0  0  0  0  0  0  0  0
   -1.8928    3.5660   -1.8987 H   0  0  0  0  0  0  0  0  0  0  0  0
  1  2  1  0  0  0  0
  1  4  1  0  0  0  0
  1  9  2  0  0  0  0
  3  5  1  0  0  0  0
  4  6  1  0  0  0  0
  5  7  1  0  0  0  0
  6  8  1  0  0  0  0
  7  8  1  0  0  0  0
  2 10  1  0  0  0  0
  2 11  1  0  0  0  0
  2 12  1  0  0  0  0
  3 13  1  0  0  0  0
  3 14  1  0  0  0  0
  3 15  1  0  0  0  0
  4 16  1  0  0  0  0
  4 17  1  0  0  0  0
  5 18  1  0  0  0  0
  5 19  1  0  0  0  0
  6 20  1  0  0  0  0
  6 21  1  0  0  0  0
  7 22  1  0  0  0  0
  7 23  1  0  0  0  0
  8 24  1  0  0  0  0
  8 25  1  0  0  0  0
M  END
$$$$
