SAMPL4_002
  -OEChem-10241310033D

 34 33  0     1  0  0  0  0  0999 V2000
   -1.4380   -3.4940   -1.9890 C   0  0  0  0  0  0  0  0  0  0  0  0
   -0.2940   -2.8050   -1.9010 C   0  0  0  0  0  0  0  0  0  0  0  0
    1.3300   -1.1850    1.8660 C   0  0  0  0  0  0  0  0  0  0  0  0
    0.7350   -1.7880    2.9120 C   0  0  0  0  0  0  0  0  0  0  0  0
    1.0880   -1.2560   -3.7880 C   0  0  0  0  0  0  0  0  0  0  0  0
    0.8440   -1.3390    4.3420 C   0  0  0  0  0  0  0  0  0  0  0  0
   -0.1070   -3.0190    2.7070 C   0  0  0  0  0  0  0  0  0  0  0  0
    2.3970   -0.8320   -4.3820 C   0  0  0  0  0  0  0  0  0  0  0  0
   -1.2400   -0.4710   -2.4130 C   0  0  0  0  0  0  0  0  0  0  0  0
    1.2590   -1.5830    0.4170 C   0  0  0  0  0  0  0  0  0  0  0  0
    0.0760   -0.9050   -0.2820 C   0  0  0  0  0  0  0  0  0  0  0  0
   -0.1290   -1.3050   -1.7630 C   0  0  1  0  0  0  0  0  0  0  0  0
    0.1880   -1.7890   -4.4230 O   0  0  0  0  0  0  0  0  0  0  0  0
    1.0770   -0.9510   -2.4620 O   0  0  0  0  0  0  0  0  0  0  0  0
   -1.4630   -4.5720   -2.0860 H   0  0  0  0  0  0  0  0  0  0  0  0
   -2.3900   -2.9730   -1.9620 H   0  0  0  0  0  0  0  0  0  0  0  0
    0.6300   -3.3810   -1.9330 H   0  0  0  0  0  0  0  0  0  0  0  0
    1.9540   -0.3130    2.0600 H   0  0  0  0  0  0  0  0  0  0  0  0
    0.0450   -0.6270    4.5750 H   0  0  0  0  0  0  0  0  0  0  0  0
    1.8060   -0.8420    4.5080 H   0  0  0  0  0  0  0  0  0  0  0  0
    0.7570   -2.1550    5.0620 H   0  0  0  0  0  0  0  0  0  0  0  0
    0.5130   -3.9180    2.7880 H   0  0  0  0  0  0  0  0  0  0  0  0
   -0.9110   -3.1030    3.4460 H   0  0  0  0  0  0  0  0  0  0  0  0
   -0.5680   -3.0020    1.7140 H   0  0  0  0  0  0  0  0  0  0  0  0
    2.3250    0.1970   -4.7440 H   0  0  0  0  0  0  0  0  0  0  0  0
    2.6710   -1.5080   -5.1960 H   0  0  0  0  0  0  0  0  0  0  0  0
    3.1750   -0.8780   -3.6150 H   0  0  0  0  0  0  0  0  0  0  0  0
   -1.0500    0.6000   -2.2710 H   0  0  0  0  0  0  0  0  0  0  0  0
   -1.3370   -0.6600   -3.4860 H   0  0  0  0  0  0  0  0  0  0  0  0
   -2.2080   -0.6700   -1.9390 H   0  0  0  0  0  0  0  0  0  0  0  0
    2.2010   -1.2800   -0.0540 H   0  0  0  0  0  0  0  0  0  0  0  0
    1.2070   -2.6700    0.3070 H   0  0  0  0  0  0  0  0  0  0  0  0
    0.1920    0.1870   -0.2220 H   0  0  0  0  0  0  0  0  0  0  0  0
   -0.8470   -1.1170    0.2770 H   0  0  0  0  0  0  0  0  0  0  0  0
  1  2  2  0  0  0  0
  2 12  1  0  0  0  0
  3  4  2  0  0  0  0
  3 10  1  0  0  0  0
  4  6  1  0  0  0  0
  4  7  1  0  0  0  0
  5  8  1  0  0  0  0
  5 13  2  0  0  0  0
  5 14  1  0  0  0  0
  9 12  1  0  0  0  0
 10 11  1  0  0  0  0
 11 12  1  0  0  0  0
 12 14  1  0  0  0  0
  1 15  1  0  0  0  0
  1 16  1  0  0  0  0
  2 17  1  0  0  0  0
  3 18  1  0  0  0  0
  6 19  1  0  0  0  0
  6 20  1  0  0  0  0
  6 21  1  0  0  0  0
  7 22  1  0  0  0  0
  7 23  1  0  0  0  0
  7 24  1  0  0  0  0
  8 25  1  0  0  0  0
  8 26  1  0  0  0  0
  8 27  1  0  0  0  0
  9 28  1  0  0  0  0
  9 29  1  0  0  0  0
  9 30  1  0  0  0  0
 10 31  1  0  0  0  0
 10 32  1  0  0  0  0
 11 33  1  0  0  0  0
 11 34  1  0  0  0  0
M  END
$$$$
