hexan_1_ol
  -OEChem-10241310033D

 21 20  0     0  0  0  0  0  0999 V2000
    1.7833   -1.3584    0.9178 C   0  0  0  0  0  0  0  0  0  0  0  0
    1.1442   -1.8866    2.1933 C   0  0  0  0  0  0  0  0  0  0  0  0
   -0.1230   -1.1065    2.5457 C   0  0  0  0  0  0  0  0  0  0  0  0
   -0.7660   -1.5523    3.8620 C   0  0  0  0  0  0  0  0  0  0  0  0
   -2.0456   -0.7898    4.2020 C   0  0  0  0  0  0  0  0  0  0  0  0
   -2.6297   -1.2442    5.5331 C   0  0  0  0  0  0  0  0  0  0  0  0
   -3.8211   -0.5123    5.7858 O   0  0  0  0  0  0  0  0  0  0  0  0
    2.6848   -1.9319    0.6802 H   0  0  0  0  0  0  0  0  0  0  0  0
    1.0947   -1.4412    0.0708 H   0  0  0  0  0  0  0  0  0  0  0  0
    2.0688   -0.3074    1.0277 H   0  0  0  0  0  0  0  0  0  0  0  0
    1.8672   -1.8141    3.0137 H   0  0  0  0  0  0  0  0  0  0  0  0
    0.9125   -2.9479    2.0545 H   0  0  0  0  0  0  0  0  0  0  0  0
   -0.8521   -1.1958    1.7312 H   0  0  0  0  0  0  0  0  0  0  0  0
    0.1252   -0.0410    2.6309 H   0  0  0  0  0  0  0  0  0  0  0  0
   -0.0356   -1.4015    4.6668 H   0  0  0  0  0  0  0  0  0  0  0  0
   -0.9747   -2.6284    3.8233 H   0  0  0  0  0  0  0  0  0  0  0  0
   -2.8003   -0.9283    3.4193 H   0  0  0  0  0  0  0  0  0  0  0  0
   -1.8465    0.2883    4.2424 H   0  0  0  0  0  0  0  0  0  0  0  0
   -2.8747   -2.3107    5.5080 H   0  0  0  0  0  0  0  0  0  0  0  0
   -1.9274   -1.0587    6.3521 H   0  0  0  0  0  0  0  0  0  0  0  0
   -3.9589    0.0715    5.0223 H   0  0  0  0  0  0  0  0  0  0  0  0
  1  2  1  0  0  0  0
  2  3  1  0  0  0  0
  3  4  1  0  0  0  0
  4  5  1  0  0  0  0
  5  6  1  0  0  0  0
  6  7  1  0  0  0  0
  1  8  1  0  0  0  0
  1  9  1  0  0  0  0
  1 10  1  0  0  0  0
  2 11  1  0  0  0  0
  2 12  1  0  0  0  0
  3 13  1  0  0  0  0
  3 14  1  0  0  0  0
  4 15  1  0  0  0  0
  4 16  1  0  0  0  0
  5 17  1  0  0  0  0
  5 18  1  0  0  0  0
  6 19  1  0  0  0  0
  6 20  1  0  0  0  0
  7 21  1  0  0  0  0
M  END
$$$$
