1_nitropentane
  -OEChem-10241310023D

 19 18  0     0  0  0  0  0  0999 V2000
    0.3785   -0.7859    0.7064 C   0  0  0  0  0  0  0  0  0  0  0  0
    1.5222   -0.2153    1.5296 C   0  0  0  0  0  0  0  0  0  0  0  0
    2.6996    0.1938    0.6447 C   0  0  0  0  0  0  0  0  0  0  0  0
    3.8612    0.7357    1.4788 C   0  0  0  0  0  0  0  0  0  0  0  0
    5.0101    1.1785    0.5895 C   0  0  0  0  0  0  0  0  0  0  0  0
    6.0590    1.7461    1.4531 N   0  3  0  0  0  0  0  0  0  0  0  0
    6.0254    2.9687    1.6778 O   0  5  0  0  0  0  0  0  0  0  0  0
    6.9051    0.9633    1.9200 O   0  0  0  0  0  0  0  0  0  0  0  0
   -0.4522   -1.0720    1.3592 H   0  0  0  0  0  0  0  0  0  0  0  0
    0.0072   -0.0493   -0.0132 H   0  0  0  0  0  0  0  0  0  0  0  0
    0.6983   -1.6753    0.1542 H   0  0  0  0  0  0  0  0  0  0  0  0
    1.8480   -0.9650    2.2602 H   0  0  0  0  0  0  0  0  0  0  0  0
    1.1611    0.6524    2.0939 H   0  0  0  0  0  0  0  0  0  0  0  0
    2.3731    0.9583   -0.0710 H   0  0  0  0  0  0  0  0  0  0  0  0
    3.0387   -0.6712    0.0615 H   0  0  0  0  0  0  0  0  0  0  0  0
    4.2043   -0.0376    2.1782 H   0  0  0  0  0  0  0  0  0  0  0  0
    3.5135    1.5786    2.0901 H   0  0  0  0  0  0  0  0  0  0  0  0
    4.7211    1.9683   -0.1082 H   0  0  0  0  0  0  0  0  0  0  0  0
    5.4685    0.3464    0.0496 H   0  0  0  0  0  0  0  0  0  0  0  0
  1  2  1  0  0  0  0
  2  3  1  0  0  0  0
  3  4  1  0  0  0  0
  4  5  1  0  0  0  0
  5  6  1  0  0  0  0
  6  7  1  0  0  0  0
  6  8  2  0  0  0  0
  1  9  1  0  0  0  0
  1 10  1  0  0  0  0
  1 11  1  0  0  0  0
  2 12  1  0  0  0  0
  2 13  1  0  0  0  0
  3 14  1  0  0  0  0
  3 15  1  0  0  0  0
  4 16  1  0  0  0  0
  4 17  1  0  0  0  0
  5 18  1  0  0  0  0
  5 19  1  0  0  0  0
M  CHG  2   6   1   7  -1
M  END
$$$$
