5-flurouracil
  -OEChem-10241310023D

 12 12  0     0  0  0  0  0  0999 V2000
   -1.0700    0.3560    1.7120 C   0  0  0  0  0  0  0  0  0  0  0  0
   -1.9310   -0.1090    2.6140 C   0  0  0  0  0  0  0  0  0  0  0  0
   -2.4750   -1.4770    2.5050 C   0  0  0  0  0  0  0  0  0  0  0  0
   -1.0990   -1.7120    0.4430 C   0  0  0  0  0  0  0  0  0  0  0  0
   -0.6590   -0.4100    0.6550 N   0  0  0  0  0  0  0  0  0  0  0  0
   -2.0040   -2.1830    1.4030 N   0  0  0  0  0  0  0  0  0  0  0  0
   -3.2680   -1.9180    3.3300 O   0  0  0  0  0  0  0  0  0  0  0  0
   -0.7240   -2.3970   -0.5090 O   0  0  0  0  0  0  0  0  0  0  0  0
   -2.3500    0.6240    3.6620 F   0  0  0  0  0  0  0  0  0  0  0  0
   -0.6540    1.3540    1.7650 H   0  0  0  0  0  0  0  0  0  0  0  0
   -0.0010   -0.0090   -0.0060 H   0  0  0  0  0  0  0  0  0  0  0  0
   -2.3490   -3.1310    1.2820 H   0  0  0  0  0  0  0  0  0  0  0  0
  1  2  2  0  0  0  0
  1  5  1  0  0  0  0
  2  3  1  0  0  0  0
  2  9  1  0  0  0  0
  3  6  1  0  0  0  0
  3  7  2  0  0  0  0
  4  5  1  0  0  0  0
  4  6  1  0  0  0  0
  4  8  2  0  0  0  0
  1 10  1  0  0  0  0
  5 11  1  0  0  0  0
  6 12  1  0  0  0  0
M  END
$$$$
