N_acetylpyrrolidine
  -OEChem-10241310023D

 19 19  0     0  0  0  0  0  0999 V2000
   -0.8576   -2.3754    3.1485 C   0  0  0  0  0  0  0  0  0  0  0  0
   -0.1848   -1.0587   -0.2182 C   0  0  0  0  0  0  0  0  0  0  0  0
    1.0829   -1.8649    0.0355 C   0  0  0  0  0  0  0  0  0  0  0  0
   -1.1613   -1.6371    0.7942 C   0  0  0  0  0  0  0  0  0  0  0  0
    1.0860   -2.0286    1.5489 C   0  0  0  0  0  0  0  0  0  0  0  0
    0.1446   -2.7768    4.2009 C   0  0  0  0  0  0  0  0  0  0  0  0
   -0.3265   -2.0398    1.9165 N   0  0  0  0  0  0  0  0  0  0  0  0
   -2.0624   -2.3650    3.4059 O   0  0  0  0  0  0  0  0  0  0  0  0
    0.0006    0.0001   -0.0007 H   0  0  0  0  0  0  0  0  0  0  0  0
   -0.5466   -1.1404   -1.2468 H   0  0  0  0  0  0  0  0  0  0  0  0
    1.0005   -2.8455   -0.4486 H   0  0  0  0  0  0  0  0  0  0  0  0
    1.9860   -1.3734   -0.3364 H   0  0  0  0  0  0  0  0  0  0  0  0
   -1.9252   -0.9219    1.1134 H   0  0  0  0  0  0  0  0  0  0  0  0
   -1.6565   -2.5351    0.4082 H   0  0  0  0  0  0  0  0  0  0  0  0
    1.5811   -2.9466    1.8784 H   0  0  0  0  0  0  0  0  0  0  0  0
    1.5530   -1.1716    2.0464 H   0  0  0  0  0  0  0  0  0  0  0  0
    0.9897   -2.0992    4.1310 H   0  0  0  0  0  0  0  0  0  0  0  0
    0.4585   -3.7961    4.0028 H   0  0  0  0  0  0  0  0  0  0  0  0
   -0.3280   -2.6934    5.1736 H   0  0  0  0  0  0  0  0  0  0  0  0
  1  6  1  0  0  0  0
  1  7  1  0  0  0  0
  1  8  2  0  0  0  0
  2  3  1  0  0  0  0
  2  4  1  0  0  0  0
  3  5  1  0  0  0  0
  4  7  1  0  0  0  0
  5  7  1  0  0  0  0
  2  9  1  0  0  0  0
  2 10  1  0  0  0  0
  3 11  1  0  0  0  0
  3 12  1  0  0  0  0
  4 13  1  0  0  0  0
  4 14  1  0  0  0  0
  5 15  1  0  0  0  0
  5 16  1  0  0  0  0
  6 17  1  0  0  0  0
  6 18  1  0  0  0  0
  6 19  1  0  0  0  0
M  END
$$$$
