34_dimethylphenol
  -OEChem-10241310033D

 19 19  0     0  0  0  0  0  0999 V2000
    0.8324   -0.3948    0.5751 C   0  0  0  0  0  0  0  0  0  0  0  0
    0.8349   -0.2829    1.9655 C   0  0  0  0  0  0  0  0  0  0  0  0
    2.9708   -1.4085    2.0522 C   0  0  0  0  0  0  0  0  0  0  0  0
    1.8991   -1.0135   -0.0768 C   0  0  0  0  0  0  0  0  0  0  0  0
    2.9683   -1.5204    0.6618 C   0  0  0  0  0  0  0  0  0  0  0  0
    1.9042   -0.7896    2.7040 C   0  0  0  0  0  0  0  0  0  0  0  0
    1.8742   -1.1215   -1.5660 C   0  0  0  0  0  0  0  0  0  0  0  0
    4.1205   -2.1878   -0.0143 C   0  0  0  0  0  0  0  0  0  0  0  0
    1.9069   -0.6791    4.0605 O   0  0  0  0  0  0  0  0  0  0  0  0
   -0.0053    0.0032    0.0086 H   0  0  0  0  0  0  0  0  0  0  0  0
    0.0014    0.2007    2.4674 H   0  0  0  0  0  0  0  0  0  0  0  0
    3.8030   -1.8028    2.6310 H   0  0  0  0  0  0  0  0  0  0  0  0
    2.0526   -2.1580   -1.8749 H   0  0  0  0  0  0  0  0  0  0  0  0
    0.9075   -0.7976   -1.9710 H   0  0  0  0  0  0  0  0  0  0  0  0
    2.6414   -0.4837   -2.0226 H   0  0  0  0  0  0  0  0  0  0  0  0
    4.8844   -2.4646    0.7216 H   0  0  0  0  0  0  0  0  0  0  0  0
    3.7995   -3.0939   -0.5427 H   0  0  0  0  0  0  0  0  0  0  0  0
    4.5781   -1.5276   -0.7616 H   0  0  0  0  0  0  0  0  0  0  0  0
    1.2266   -0.0333    4.3252 H   0  0  0  0  0  0  0  0  0  0  0  0
  1  2  1  0  0  0  0
  1  4  2  0  0  0  0
  2  6  2  0  0  0  0
  3  5  2  0  0  0  0
  3  6  1  0  0  0  0
  4  5  1  0  0  0  0
  4  7  1  0  0  0  0
  5  8  1  0  0  0  0
  6  9  1  0  0  0  0
  1 10  1  0  0  0  0
  2 11  1  0  0  0  0
  3 12  1  0  0  0  0
  7 13  1  0  0  0  0
  7 14  1  0  0  0  0
  7 15  1  0  0  0  0
  8 16  1  0  0  0  0
  8 17  1  0  0  0  0
  8 18  1  0  0  0  0
  9 19  1  0  0  0  0
M  END
$$$$
