res
  -OEChem-10241310023D

 26 25  0     0  0  0  0  0  0999 V2000
   -0.7140    2.0810    1.2330 O   0  0  0  0  0  0  0  0  0  0  0  0
   -0.0040    1.5980   -0.0140 P   0  0  0  0  0  0  0  0  0  0  0  0
    0.1020   -0.0330   -0.1350 O   0  0  0  0  0  0  0  0  0  0  0  0
   -1.1000   -0.7810   -0.0240 C   0  0  0  0  0  0  0  0  0  0  0  0
   -1.4700   -0.6740    0.9930 H   0  0  0  0  0  0  0  0  0  0  0  0
   -1.8390   -0.3870   -0.7330 H   0  0  0  0  0  0  0  0  0  0  0  0
   -0.7990   -2.2340   -0.3330 C   0  0  0  0  0  0  0  0  0  0  0  0
   -1.6950   -2.8390   -0.2410 H   0  0  0  0  0  0  0  0  0  0  0  0
   -0.0440   -2.6290    0.3350 H   0  0  0  0  0  0  0  0  0  0  0  0
   -0.4040   -2.3430   -1.3400 H   0  0  0  0  0  0  0  0  0  0  0  0
    1.5430    2.0670   -0.1580 O   0  0  0  0  0  0  0  0  0  0  0  0
    1.8130    3.4810   -0.0360 C   0  0  0  0  0  0  0  0  0  0  0  0
    1.2020    4.0340   -0.7280 H   0  0  0  0  0  0  0  0  0  0  0  0
    1.5930    3.8050    0.9880 H   0  0  0  0  0  0  0  0  0  0  0  0
    3.2740    3.7160   -0.3370 C   0  0  0  0  0  0  0  0  0  0  0  0
    3.5380    3.3710   -1.3420 H   0  0  0  0  0  0  0  0  0  0  0  0
    3.9140    3.1670    0.3480 H   0  0  0  0  0  0  0  0  0  0  0  0
    3.5240    4.7720   -0.2620 H   0  0  0  0  0  0  0  0  0  0  0  0
   -0.6890    2.0790   -1.4190 O   0  0  0  0  0  0  0  0  0  0  0  0
   -0.1080    1.6710   -2.6630 C   0  0  0  0  0  0  0  0  0  0  0  0
    0.9200    2.0360   -2.7350 H   0  0  0  0  0  0  0  0  0  0  0  0
   -0.0890    0.5810   -2.7100 H   0  0  0  0  0  0  0  0  0  0  0  0
   -0.9320    2.2150   -3.7980 C   0  0  0  0  0  0  0  0  0  0  0  0
   -0.9640    3.3220   -3.7400 H   0  0  0  0  0  0  0  0  0  0  0  0
   -1.9870    1.8700   -3.7300 H   0  0  0  0  0  0  0  0  0  0  0  0
   -0.5190    1.9650   -4.7730 H   0  0  0  0  0  0  0  0  0  0  0  0
  1  2  2  0  0  0  0
  2  3  1  0  0  0  0
  2 11  1  0  0  0  0
  2 19  1  0  0  0  0
  3  4  1  0  0  0  0
  4  5  1  0  0  0  0
  4  6  1  0  0  0  0
  4  7  1  0  0  0  0
  7  8  1  0  0  0  0
  7  9  1  0  0  0  0
  7 10  1  0  0  0  0
 11 12  1  0  0  0  0
 12 13  1  0  0  0  0
 12 14  1  0  0  0  0
 12 15  1  0  0  0  0
 15 16  1  0  0  0  0
 15 17  1  0  0  0  0
 15 18  1  0  0  0  0
 19 20  1  0  0  0  0
 20 21  1  0  0  0  0
 20 22  1  0  0  0  0
 20 23  1  0  0  0  0
 23 24  1  0  0  0  0
 23 25  1  0  0  0  0
 23 26  1  0  0  0  0
M  END
$$$$
