ethene
  -OEChem-10241310033D

  6  5  0     0  0  0  0  0  0999 V2000
    0.2842    1.0298   -0.1842 C   0  0  0  0  0  0  0  0  0  0  0  0
   -0.6398    1.9558   -0.4472 C   0  0  0  0  0  0  0  0  0  0  0  0
    1.3359    1.2903   -0.1502 H   0  0  0  0  0  0  0  0  0  0  0  0
    0.0000    0.0000    0.0000 H   0  0  0  0  0  0  0  0  0  0  0  0
   -1.6915    1.6952   -0.4813 H   0  0  0  0  0  0  0  0  0  0  0  0
   -0.3558    2.9856   -0.6318 H   0  0  0  0  0  0  0  0  0  0  0  0
  1  2  2  0  0  0  0
  1  3  1  0  0  0  0
  1  4  1  0  0  0  0
  2  5  1  0  0  0  0
  2  6  1  0  0  0  0
M  END
$$$$
