SAMPL4_032
  -OEChem-10241310043D

 13 13  0     0  0  0  0  0  0999 V2000
    1.8850   -1.0360   -0.1120 C   0  0  0  0  0  0  0  0  0  0  0  0
    0.8070   -0.4630    0.5610 C   0  0  0  0  0  0  0  0  0  0  0  0
    2.8780   -1.6520    2.0020 C   0  0  0  0  0  0  0  0  0  0  0  0
    2.9210   -1.6310    0.6080 C   0  0  0  0  0  0  0  0  0  0  0  0
    0.7640   -0.4840    1.9550 C   0  0  0  0  0  0  0  0  0  0  0  0
    1.8000   -1.0790    2.6760 C   0  0  0  0  0  0  0  0  0  0  0  0
    3.9730   -2.1900   -0.0500 O   0  0  0  0  0  0  0  0  0  0  0  0
   -0.5990    0.2430    2.7310 Cl  0  0  0  0  0  0  0  0  0  0  0  0
    1.8040   -1.1370    4.4030 Cl  0  0  0  0  0  0  0  0  0  0  0  0
    1.9130   -1.0170   -1.1990 H   0  0  0  0  0  0  0  0  0  0  0  0
    0.0080   -0.0040   -0.0160 H   0  0  0  0  0  0  0  0  0  0  0  0
    3.6920   -2.1180    2.5540 H   0  0  0  0  0  0  0  0  0  0  0  0
    4.6080   -2.5600    0.5850 H   0  0  0  0  0  0  0  0  0  0  0  0
  1  2  2  0  0  0  0
  1  4  1  0  0  0  0
  2  5  1  0  0  0  0
  3  4  2  0  0  0  0
  3  6  1  0  0  0  0
  4  7  1  0  0  0  0
  5  6  2  0  0  0  0
  5  8  1  0  0  0  0
  6  9  1  0  0  0  0
  1 10  1  0  0  0  0
  2 11  1  0  0  0  0
  3 12  1  0  0  0  0
  7 13  1  0  0  0  0
M  END
$$$$
