res
  -OEChem-10241310043D

 12 11  0     1  0  0  0  0  0999 V2000
   -1.0220   -0.3780    0.0150 H   0  0  0  0  0  0  0  0  0  0  0  0
   -0.0170   -0.0010   -0.0000 C   0  0  1  0  0  0  0  0  0  0  0  0
   -0.0170    1.5240   -0.0030 C   0  0  0  0  0  0  0  0  0  0  0  0
    1.2530    2.0400    0.0110 F   0  0  0  0  0  0  0  0  0  0  0  0
   -0.6470    2.0200   -1.0950 F   0  0  0  0  0  0  0  0  0  0  0  0
   -0.6610    1.9860    1.1040 F   0  0  0  0  0  0  0  0  0  0  0  0
    0.7230   -0.5620   -1.2130 C   0  0  0  0  0  0  0  0  0  0  0  0
    0.2580   -0.2090   -2.1420 H   0  0  0  0  0  0  0  0  0  0  0  0
    0.7380   -1.6380   -1.2020 H   0  0  0  0  0  0  0  0  0  0  0  0
    1.7790   -0.2260   -1.2360 H   0  0  0  0  0  0  0  0  0  0  0  0
    0.6450   -0.4970    1.1720 O   0  0  0  0  0  0  0  0  0  0  0  0
    0.1880   -0.1680    1.9520 H   0  0  0  0  0  0  0  0  0  0  0  0
  1  2  1  0  0  0  0
  2  3  1  0  0  0  0
  2  7  1  0  0  0  0
  2 11  1  0  0  0  0
  3  4  1  0  0  0  0
  3  5  1  0  0  0  0
  3  6  1  0  0  0  0
  7  8  1  0  0  0  0
  7  9  1  0  0  0  0
  7 10  1  0  0  0  0
 11 12  1  0  0  0  0
M  END
$$$$
