2_chloro_2_methylpropane
  -OEChem-10241310033D

 14 13  0     0  0  0  0  0  0999 V2000
    0.7749    0.2118   -0.7456 C   0  0  0  0  0  0  0  0  0  0  0  0
   -0.8097    1.6428   -2.0696 C   0  0  0  0  0  0  0  0  0  0  0  0
    1.6695    1.8600   -2.4175 C   0  0  0  0  0  0  0  0  0  0  0  0
    0.5635    1.5787   -1.3987 C   0  0  0  0  0  0  0  0  0  0  0  0
    0.6327    2.8393   -0.1192 Cl  0  0  0  0  0  0  0  0  0  0  0  0
    1.7476    0.1536   -0.2436 H   0  0  0  0  0  0  0  0  0  0  0  0
   -0.0000    0.0000    0.0000 H   0  0  0  0  0  0  0  0  0  0  0  0
    0.7407   -0.5886   -1.4932 H   0  0  0  0  0  0  0  0  0  0  0  0
   -1.6159    1.4604   -1.3498 H   0  0  0  0  0  0  0  0  0  0  0  0
   -0.9861    2.6222   -2.5289 H   0  0  0  0  0  0  0  0  0  0  0  0
   -0.8955    0.8879   -2.8594 H   0  0  0  0  0  0  0  0  0  0  0  0
    2.6601    1.8375   -1.9495 H   0  0  0  0  0  0  0  0  0  0  0  0
    1.5426    2.8429   -2.8853 H   0  0  0  0  0  0  0  0  0  0  0  0
    1.6653    1.1107   -3.2173 H   0  0  0  0  0  0  0  0  0  0  0  0
  1  4  1  0  0  0  0
  2  4  1  0  0  0  0
  3  4  1  0  0  0  0
  4  5  1  0  0  0  0
  1  6  1  0  0  0  0
  1  7  1  0  0  0  0
  1  8  1  0  0  0  0
  2  9  1  0  0  0  0
  2 10  1  0  0  0  0
  2 11  1  0  0  0  0
  3 12  1  0  0  0  0
  3 13  1  0  0  0  0
  3 14  1  0  0  0  0
M  END
$$$$
