SAMPL4_020
  -OEChem-10241310033D

 26 27  0     0  0  0  0  0  0999 V2000
    4.8470    0.6380    6.4600 C   0  0  0  0  0  0  0  0  0  0  0  0
    1.6970   -1.2030   -0.1610 C   0  0  0  0  0  0  0  0  0  0  0  0
    5.1380   -0.4100    5.5870 C   0  0  0  0  0  0  0  0  0  0  0  0
    3.5410    1.1150    6.5670 C   0  0  0  0  0  0  0  0  0  0  0  0
    1.7310    0.0210    0.5070 C   0  0  0  0  0  0  0  0  0  0  0  0
    1.6820   -2.3940    0.5660 C   0  0  0  0  0  0  0  0  0  0  0  0
    4.1220   -0.9820    4.8210 C   0  0  0  0  0  0  0  0  0  0  0  0
    2.5250    0.5430    5.8010 C   0  0  0  0  0  0  0  0  0  0  0  0
    1.7500    0.0540    1.9010 C   0  0  0  0  0  0  0  0  0  0  0  0
    1.7010   -2.3600    1.9600 C   0  0  0  0  0  0  0  0  0  0  0  0
    2.8150   -0.5050    4.9280 C   0  0  0  0  0  0  0  0  0  0  0  0
    1.7350   -1.1360    2.6280 C   0  0  0  0  0  0  0  0  0  0  0  0
    0.6930   -1.6770    4.7550 C   0  0  0  0  0  0  0  0  0  0  0  0
    1.7560   -1.1010    4.1290 C   0  0  0  0  0  0  0  0  0  0  0  0
    5.6380    1.0830    7.0570 H   0  0  0  0  0  0  0  0  0  0  0  0
    1.6810   -1.2290   -1.2460 H   0  0  0  0  0  0  0  0  0  0  0  0
    6.1550   -0.7820    5.5050 H   0  0  0  0  0  0  0  0  0  0  0  0
    3.3140    1.9310    7.2470 H   0  0  0  0  0  0  0  0  0  0  0  0
    1.7420    0.9480   -0.0580 H   0  0  0  0  0  0  0  0  0  0  0  0
    1.6540   -3.3470    0.0460 H   0  0  0  0  0  0  0  0  0  0  0  0
    4.3640   -1.7980    4.1450 H   0  0  0  0  0  0  0  0  0  0  0  0
    1.5110    0.9260    5.8950 H   0  0  0  0  0  0  0  0  0  0  0  0
    1.7770    1.0160    2.4080 H   0  0  0  0  0  0  0  0  0  0  0  0
    1.6880   -3.2970    2.5120 H   0  0  0  0  0  0  0  0  0  0  0  0
   -0.1140   -2.1290    4.1860 H   0  0  0  0  0  0  0  0  0  0  0  0
    0.5890   -1.7170    5.8360 H   0  0  0  0  0  0  0  0  0  0  0  0
  1  3  2  0  0  0  0
  1  4  1  0  0  0  0
  2  5  2  0  0  0  0
  2  6  1  0  0  0  0
  3  7  1  0  0  0  0
  4  8  2  0  0  0  0
  5  9  1  0  0  0  0
  6 10  2  0  0  0  0
  7 11  2  0  0  0  0
  8 11  1  0  0  0  0
  9 12  2  0  0  0  0
 10 12  1  0  0  0  0
 11 14  1  0  0  0  0
 12 14  1  0  0  0  0
 13 14  2  0  0  0  0
  1 15  1  0  0  0  0
  2 16  1  0  0  0  0
  3 17  1  0  0  0  0
  4 18  1  0  0  0  0
  5 19  1  0  0  0  0
  6 20  1  0  0  0  0
  7 21  1  0  0  0  0
  8 22  1  0  0  0  0
  9 23  1  0  0  0  0
 10 24  1  0  0  0  0
 13 25  1  0  0  0  0
 13 26  1  0  0  0  0
M  END
$$$$
