acetophenone
  -OEChem-10241310033D

 17 17  0     0  0  0  0  0  0999 V2000
    1.8846   -1.0376   -0.1090 C   0  0  0  0  0  0  0  0  0  0  0  0
    0.8176   -0.4410    0.5626 C   0  0  0  0  0  0  0  0  0  0  0  0
    2.9348   -1.6038    0.6137 C   0  0  0  0  0  0  0  0  0  0  0  0
    0.8008   -0.4105    1.9570 C   0  0  0  0  0  0  0  0  0  0  0  0
    2.9180   -1.5734    2.0082 C   0  0  0  0  0  0  0  0  0  0  0  0
    1.8509   -0.9767    2.6799 C   0  0  0  0  0  0  0  0  0  0  0  0
    1.8333   -0.9446    4.1336 C   0  0  0  0  0  0  0  0  0  0  0  0
    0.6701   -0.2934    4.8742 C   0  0  0  0  0  0  0  0  0  0  0  0
    2.7573   -1.4429    4.8071 O   0  0  0  0  0  0  0  0  0  0  0  0
    1.8975   -1.0613   -1.1948 H   0  0  0  0  0  0  0  0  0  0  0  0
    0.0001    0.0000   -0.0000 H   0  0  0  0  0  0  0  0  0  0  0  0
    3.7651   -2.0690    0.0906 H   0  0  0  0  0  0  0  0  0  0  0  0
   -0.0358    0.0574    2.4697 H   0  0  0  0  0  0  0  0  0  0  0  0
    3.7417   -2.0179    2.5610 H   0  0  0  0  0  0  0  0  0  0  0  0
   -0.2577   -0.8227    4.6424 H   0  0  0  0  0  0  0  0  0  0  0  0
    0.5996    0.7616    4.5971 H   0  0  0  0  0  0  0  0  0  0  0  0
    0.8298   -0.3477    5.9557 H   0  0  0  0  0  0  0  0  0  0  0  0
  1  2  1  0  0  0  0
  1  3  2  0  0  0  0
  2  4  2  0  0  0  0
  3  5  1  0  0  0  0
  4  6  1  0  0  0  0
  5  6  2  0  0  0  0
  6  7  1  0  0  0  0
  7  8  1  0  0  0  0
  7  9  2  0  0  0  0
  1 10  1  0  0  0  0
  2 11  1  0  0  0  0
  3 12  1  0  0  0  0
  4 13  1  0  0  0  0
  5 14  1  0  0  0  0
  8 15  1  0  0  0  0
  8 16  1  0  0  0  0
  8 17  1  0  0  0  0
M  END
$$$$
