CUP08053_AM1BCC_v1_0
  -OEChem-10241310033D

 35 35  0     0  0  0  0  0  0999 V2000
    2.7758   -3.6124    4.1796 C   0  0  0  0  0  0  0  0  0  0  0  0
    1.4485   -1.7915    4.1042 C   0  0  0  0  0  0  0  0  0  0  0  0
    1.1923   -3.3146    5.7214 C   0  0  0  0  0  0  0  0  0  0  0  0
    5.0740   -5.3442    1.8494 C   0  0  0  0  0  0  0  0  0  0  0  0
    0.3951    1.0382    1.9005 C   0  0  0  0  0  0  0  0  0  0  0  0
    2.6295   -0.0412    1.7475 C   0  0  0  0  0  0  0  0  0  0  0  0
    0.5281   -1.3654    1.2480 C   0  0  0  0  0  0  0  0  0  0  0  0
   -0.1604   -2.3466    7.9012 C   0  0  0  0  0  0  0  0  0  0  0  0
    3.9696   -4.3789    2.2493 C   0  0  0  0  0  0  0  0  0  0  0  0
    1.1623   -0.2815    2.1317 C   0  0  0  0  0  0  0  0  0  0  0  0
    2.4431   -2.4821    3.5708 N   0  0  0  0  0  0  0  0  0  0  0  0
    2.1707   -4.0803    5.2559 N   0  0  0  0  0  0  0  0  0  0  0  0
    0.7832   -2.1716    5.1823 N   0  0  0  0  0  0  0  0  0  0  0  0
    3.8151   -4.3963    3.6918 N   0  0  0  0  0  0  0  0  0  0  0  0
    1.0255   -0.5968    3.5561 N   0  0  0  0  0  0  0  0  0  0  0  0
    0.3433   -3.9194    7.1636 S   0  0  0  0  0  0  0  0  0  0  0  0
    6.0248   -5.0687    2.3178 H   0  0  0  0  0  0  0  0  0  0  0  0
    4.8329   -6.3672    2.1577 H   0  0  0  0  0  0  0  0  0  0  0  0
    5.2117   -5.3376    0.7638 H   0  0  0  0  0  0  0  0  0  0  0  0
   -0.6654    0.9311    2.1578 H   0  0  0  0  0  0  0  0  0  0  0  0
    0.8005    1.8454    2.5221 H   0  0  0  0  0  0  0  0  0  0  0  0
    0.4539    1.3575    0.8539 H   0  0  0  0  0  0  0  0  0  0  0  0
    3.2222   -0.9599    1.7633 H   0  0  0  0  0  0  0  0  0  0  0  0
    3.1062    0.6704    2.4315 H   0  0  0  0  0  0  0  0  0  0  0  0
    2.7079    0.3658    0.7326 H   0  0  0  0  0  0  0  0  0  0  0  0
    1.0707   -2.3146    1.3059 H   0  0  0  0  0  0  0  0  0  0  0  0
   -0.5087   -1.5617    1.5450 H   0  0  0  0  0  0  0  0  0  0  0  0
    0.5237   -1.0612    0.1950 H   0  0  0  0  0  0  0  0  0  0  0  0
   -0.6285   -2.5416    8.8701 H   0  0  0  0  0  0  0  0  0  0  0  0
   -0.8896   -1.8340    7.2679 H   0  0  0  0  0  0  0  0  0  0  0  0
    0.7060   -1.6987    8.0624 H   0  0  0  0  0  0  0  0  0  0  0  0
    3.0368   -4.6775    1.7559 H   0  0  0  0  0  0  0  0  0  0  0  0
    4.2400   -3.3758    1.8989 H   0  0  0  0  0  0  0  0  0  0  0  0
    3.7002   -5.3132    4.1117 H   0  0  0  0  0  0  0  0  0  0  0  0
    0.1159   -0.3999    3.9600 H   0  0  0  0  0  0  0  0  0  0  0  0
  1 11  1  0  0  0  0
  1 12  2  0  0  0  0
  1 14  1  0  0  0  0
  2 11  2  0  0  0  0
  2 13  1  0  0  0  0
  2 15  1  0  0  0  0
  3 12  1  0  0  0  0
  3 13  2  0  0  0  0
  3 16  1  0  0  0  0
  4  9  1  0  0  0  0
  5 10  1  0  0  0  0
  6 10  1  0  0  0  0
  7 10  1  0  0  0  0
  8 16  1  0  0  0  0
  9 14  1  0  0  0  0
 10 15  1  0  0  0  0
  4 17  1  0  0  0  0
  4 18  1  0  0  0  0
  4 19  1  0  0  0  0
  5 20  1  0  0  0  0
  5 21  1  0  0  0  0
  5 22  1  0  0  0  0
  6 23  1  0  0  0  0
  6 24  1  0  0  0  0
  6 25  1  0  0  0  0
  7 26  1  0  0  0  0
  7 27  1  0  0  0  0
  7 28  1  0  0  0  0
  8 29  1  0  0  0  0
  8 30  1  0  0  0  0
  8 31  1  0  0  0  0
  9 32  1  0  0  0  0
  9 33  1  0  0  0  0
 14 34  1  0  0  0  0
 15 35  1  0  0  0  0
M  END
$$$$
