111_trimethoxyethane
  -OEChem-10241310033D

 20 19  0     0  0  0  0  0  0999 V2000
    0.1455    0.0969    1.0817 C   0  0  0  0  0  0  0  0  0  0  0  0
    1.6591   -3.1800    1.8405 C   0  0  0  0  0  0  0  0  0  0  0  0
    0.6384   -0.6535    3.8916 C   0  0  0  0  0  0  0  0  0  0  0  0
    2.9431    0.6296    0.5765 C   0  0  0  0  0  0  0  0  0  0  0  0
    1.2767   -0.8256    1.5627 C   0  0  0  0  0  0  0  0  0  0  0  0
    0.7476   -2.1652    1.4376 O   0  0  0  0  0  0  0  0  0  0  0  0
    1.6624   -0.5239    2.9156 O   0  0  0  0  0  0  0  0  0  0  0  0
    2.3997   -0.6802    0.6665 O   0  0  0  0  0  0  0  0  0  0  0  0
    0.3564    1.1473    1.3062 H   0  0  0  0  0  0  0  0  0  0  0  0
    0.0000   -0.0000    0.0000 H   0  0  0  0  0  0  0  0  0  0  0  0
   -0.8083   -0.1565    1.5577 H   0  0  0  0  0  0  0  0  0  0  0  0
    2.6769   -2.7823    1.8286 H   0  0  0  0  0  0  0  0  0  0  0  0
    1.5814   -4.0318    1.1602 H   0  0  0  0  0  0  0  0  0  0  0  0
    1.4079   -3.5015    2.8540 H   0  0  0  0  0  0  0  0  0  0  0  0
    1.0760   -0.9769    4.8393 H   0  0  0  0  0  0  0  0  0  0  0  0
   -0.1003   -1.3836    3.5512 H   0  0  0  0  0  0  0  0  0  0  0  0
    0.1533    0.3158    4.0289 H   0  0  0  0  0  0  0  0  0  0  0  0
    2.3161    1.2409   -0.0772 H   0  0  0  0  0  0  0  0  0  0  0  0
    3.9597    0.5768    0.1787 H   0  0  0  0  0  0  0  0  0  0  0  0
    2.9670    1.0740    1.5743 H   0  0  0  0  0  0  0  0  0  0  0  0
  1  5  1  0  0  0  0
  2  6  1  0  0  0  0
  3  7  1  0  0  0  0
  4  8  1  0  0  0  0
  5  6  1  0  0  0  0
  5  7  1  0  0  0  0
  5  8  1  0  0  0  0
  1  9  1  0  0  0  0
  1 10  1  0  0  0  0
  1 11  1  0  0  0  0
  2 12  1  0  0  0  0
  2 13  1  0  0  0  0
  2 14  1  0  0  0  0
  3 15  1  0  0  0  0
  3 16  1  0  0  0  0
  3 17  1  0  0  0  0
  4 18  1  0  0  0  0
  4 19  1  0  0  0  0
  4 20  1  0  0  0  0
M  END
$$$$
