2_phenylethanol
  -OEChem-10241310023D

 19 19  0     0  0  0  0  0  0999 V2000
    1.8846   -1.0376   -0.1090 C   0  0  0  0  0  0  0  0  0  0  0  0
    0.8176   -0.4410    0.5626 C   0  0  0  0  0  0  0  0  0  0  0  0
    2.9348   -1.6038    0.6137 C   0  0  0  0  0  0  0  0  0  0  0  0
    0.8008   -0.4105    1.9570 C   0  0  0  0  0  0  0  0  0  0  0  0
    2.9180   -1.5734    2.0082 C   0  0  0  0  0  0  0  0  0  0  0  0
    1.8509   -0.9767    2.6799 C   0  0  0  0  0  0  0  0  0  0  0  0
    1.8328   -0.9437    4.1709 C   0  0  0  0  0  0  0  0  0  0  0  0
    2.5045    0.3053    4.7493 C   0  0  0  0  0  0  0  0  0  0  0  0
    2.4163    0.2794    6.1682 O   0  0  0  0  0  0  0  0  0  0  0  0
    1.8979   -1.0612   -1.1948 H   0  0  0  0  0  0  0  0  0  0  0  0
    0.0002    0.0000   -0.0002 H   0  0  0  0  0  0  0  0  0  0  0  0
    3.7655   -2.0682    0.0906 H   0  0  0  0  0  0  0  0  0  0  0  0
   -0.0347    0.0567    2.4718 H   0  0  0  0  0  0  0  0  0  0  0  0
    3.7404   -2.0171    2.5631 H   0  0  0  0  0  0  0  0  0  0  0  0
    2.3258   -1.8430    4.5774 H   0  0  0  0  0  0  0  0  0  0  0  0
    0.7906   -0.9853    4.5291 H   0  0  0  0  0  0  0  0  0  0  0  0
    1.9944    1.2083    4.3989 H   0  0  0  0  0  0  0  0  0  0  0  0
    3.5592    0.3642    4.4618 H   0  0  0  0  0  0  0  0  0  0  0  0
    2.4675   -0.6527    6.4345 H   0  0  0  0  0  0  0  0  0  0  0  0
  1  2  1  0  0  0  0
  1  3  2  0  0  0  0
  2  4  2  0  0  0  0
  3  5  1  0  0  0  0
  4  6  1  0  0  0  0
  5  6  2  0  0  0  0
  6  7  1  0  0  0  0
  7  8  1  0  0  0  0
  8  9  1  0  0  0  0
  1 10  1  0  0  0  0
  2 11  1  0  0  0  0
  3 12  1  0  0  0  0
  4 13  1  0  0  0  0
  5 14  1  0  0  0  0
  7 15  1  0  0  0  0
  7 16  1  0  0  0  0
  8 17  1  0  0  0  0
  8 18  1  0  0  0  0
  9 19  1  0  0  0  0
M  END
$$$$
