35_dimethylpyridine
  -OEChem-10241310023D

 17 17  0     0  0  0  0  0  0999 V2000
    1.6140   -0.1639    1.4246 C   0  0  0  0  0  0  0  0  0  0  0  0
   -0.4936   -1.2317    1.6986 C   0  0  0  0  0  0  0  0  0  0  0  0
    1.1127   -1.5150    3.3168 C   0  0  0  0  0  0  0  0  0  0  0  0
    0.3360   -0.4209    0.9405 C   0  0  0  0  0  0  0  0  0  0  0  0
    2.0175   -0.7175    2.6347 C   0  0  0  0  0  0  0  0  0  0  0  0
   -0.1257    0.1566   -0.3501 C   0  0  0  0  0  0  0  0  0  0  0  0
    3.3777   -0.4616    3.1794 C   0  0  0  0  0  0  0  0  0  0  0  0
   -0.1369   -1.7872    2.8784 N   0  0  0  0  0  0  0  0  0  0  0  0
    2.2950    0.4677    0.8589 H   0  0  0  0  0  0  0  0  0  0  0  0
   -1.5016   -1.4672    1.3716 H   0  0  0  0  0  0  0  0  0  0  0  0
    1.3713   -1.9738    4.2662 H   0  0  0  0  0  0  0  0  0  0  0  0
   -0.6329   -0.6070   -0.9550 H   0  0  0  0  0  0  0  0  0  0  0  0
   -0.8242    0.9902   -0.1910 H   0  0  0  0  0  0  0  0  0  0  0  0
    0.7143    0.5577   -0.9349 H   0  0  0  0  0  0  0  0  0  0  0  0
    3.4345    0.5431    3.6194 H   0  0  0  0  0  0  0  0  0  0  0  0
    3.6448   -1.1931    3.9551 H   0  0  0  0  0  0  0  0  0  0  0  0
    4.1457   -0.5390    2.3967 H   0  0  0  0  0  0  0  0  0  0  0  0
  1  4  1  0  0  0  0
  1  5  2  0  0  0  0
  2  4  2  0  0  0  0
  2  8  1  0  0  0  0
  3  5  1  0  0  0  0
  3  8  2  0  0  0  0
  4  6  1  0  0  0  0
  5  7  1  0  0  0  0
  1  9  1  0  0  0  0
  2 10  1  0  0  0  0
  3 11  1  0  0  0  0
  6 12  1  0  0  0  0
  6 13  1  0  0  0  0
  6 14  1  0  0  0  0
  7 15  1  0  0  0  0
  7 16  1  0  0  0  0
  7 17  1  0  0  0  0
M  END
$$$$
