SAMPL4_037
  -OEChem-10241310033D

 17 17  0     0  0  0  0  0  0999 V2000
    3.0990   -1.7440    0.1850 C   0  0  0  0  0  0  0  0  0  0  0  0
    1.9830   -1.0940   -0.3420 C   0  0  0  0  0  0  0  0  0  0  0  0
    3.2450   -1.8690    1.5660 C   0  0  0  0  0  0  0  0  0  0  0  0
    1.0130   -0.5690    0.5120 C   0  0  0  0  0  0  0  0  0  0  0  0
    2.2760   -1.3450    2.4210 C   0  0  0  0  0  0  0  0  0  0  0  0
    1.1600   -0.6940    1.8940 C   0  0  0  0  0  0  0  0  0  0  0  0
   -0.9020    0.4730    2.0990 C   0  0  0  0  0  0  0  0  0  0  0  0
    2.4300   -1.4720    3.7680 O   0  0  0  0  0  0  0  0  0  0  0  0
    0.2060   -0.1760    2.7180 O   0  0  0  0  0  0  0  0  0  0  0  0
    3.8540   -2.1530   -0.4810 H   0  0  0  0  0  0  0  0  0  0  0  0
    1.8690   -0.9960   -1.4180 H   0  0  0  0  0  0  0  0  0  0  0  0
    4.1170   -2.3770    1.9700 H   0  0  0  0  0  0  0  0  0  0  0  0
    0.1470   -0.0620    0.0950 H   0  0  0  0  0  0  0  0  0  0  0  0
   -1.5870    0.8390    2.8680 H   0  0  0  0  0  0  0  0  0  0  0  0
   -1.4190   -0.2330    1.4430 H   0  0  0  0  0  0  0  0  0  0  0  0
   -0.5360    1.3160    1.5080 H   0  0  0  0  0  0  0  0  0  0  0  0
    3.2540   -1.9460    3.9670 H   0  0  0  0  0  0  0  0  0  0  0  0
  1  2  2  0  0  0  0
  1  3  1  0  0  0  0
  2  4  1  0  0  0  0
  3  5  2  0  0  0  0
  4  6  2  0  0  0  0
  5  6  1  0  0  0  0
  5  8  1  0  0  0  0
  6  9  1  0  0  0  0
  7  9  1  0  0  0  0
  1 10  1  0  0  0  0
  2 11  1  0  0  0  0
  3 12  1  0  0  0  0
  4 13  1  0  0  0  0
  7 14  1  0  0  0  0
  7 15  1  0  0  0  0
  7 16  1  0  0  0  0
  8 17  1  0  0  0  0
M  END
$$$$
