propyne
  -OEChem-10241310033D

  7  6  0     0  0  0  0  0  0999 V2000
   -0.5942    3.0237   -0.9302 C   0  0  0  0  0  0  0  0  0  0  0  0
   -0.6484    1.8276   -0.8449 C   0  0  0  0  0  0  0  0  0  0  0  0
   -0.7150    0.3705   -0.7408 C   0  0  0  0  0  0  0  0  0  0  0  0
   -0.5459    4.0849   -1.0060 H   0  0  0  0  0  0  0  0  0  0  0  0
    0.0000    0.0000    0.0000 H   0  0  0  0  0  0  0  0  0  0  0  0
   -1.7155    0.0471   -0.4382 H   0  0  0  0  0  0  0  0  0  0  0  0
   -0.4825   -0.0996   -1.7011 H   0  0  0  0  0  0  0  0  0  0  0  0
  1  2  3  0  0  0  0
  2  3  1  0  0  0  0
  1  4  1  0  0  0  0
  3  5  1  0  0  0  0
  3  6  1  0  0  0  0
  3  7  1  0  0  0  0
M  END
$$$$
