23_dimethylbuta_13_diene
  -OEChem-10241310043D

 16 15  0     0  0  0  0  0  0999 V2000
    0.6209   -0.4101   -0.7911 C   0  0  0  0  0  0  0  0  0  0  0  0
   -0.8314   -3.7984   -1.2032 C   0  0  0  0  0  0  0  0  0  0  0  0
    0.4218   -1.6576   -1.2550 C   0  0  0  0  0  0  0  0  0  0  0  0
   -0.6322   -2.5508   -0.7393 C   0  0  0  0  0  0  0  0  0  0  0  0
    1.3221   -2.1636   -2.3566 C   0  0  0  0  0  0  0  0  0  0  0  0
   -1.5339   -2.0441    0.3612 C   0  0  0  0  0  0  0  0  0  0  0  0
    1.3955    0.2471   -1.1696 H   0  0  0  0  0  0  0  0  0  0  0  0
    0.0000    0.0000    0.0000 H   0  0  0  0  0  0  0  0  0  0  0  0
   -1.6186   -4.4281   -0.7991 H   0  0  0  0  0  0  0  0  0  0  0  0
   -0.2318   -4.2416   -1.9901 H   0  0  0  0  0  0  0  0  0  0  0  0
    2.0668   -1.4182   -2.6585 H   0  0  0  0  0  0  0  0  0  0  0  0
    0.7395   -2.4119   -3.2507 H   0  0  0  0  0  0  0  0  0  0  0  0
    1.8747   -3.0516   -2.0306 H   0  0  0  0  0  0  0  0  0  0  0  0
   -2.0876   -1.1576    0.0330 H   0  0  0  0  0  0  0  0  0  0  0  0
   -2.2777   -2.7902    0.6638 H   0  0  0  0  0  0  0  0  0  0  0  0
   -0.9530   -1.7929    1.2554 H   0  0  0  0  0  0  0  0  0  0  0  0
  1  3  2  0  0  0  0
  2  4  2  0  0  0  0
  3  4  1  0  0  0  0
  3  5  1  0  0  0  0
  4  6  1  0  0  0  0
  1  7  1  0  0  0  0
  1  8  1  0  0  0  0
  2  9  1  0  0  0  0
  2 10  1  0  0  0  0
  5 11  1  0  0  0  0
  5 12  1  0  0  0  0
  5 13  1  0  0  0  0
  6 14  1  0  0  0  0
  6 15  1  0  0  0  0
  6 16  1  0  0  0  0
M  END
$$$$
