E_hept_2_ene
  -OEChem-10241310033D

 21 20  0     0  0  0  0  0  0999 V2000
    1.4387    1.3907   -0.6400 C   0  0  0  0  0  0  0  0  0  0  0  0
    1.0587    0.2352   -0.0758 C   0  0  0  0  0  0  0  0  0  0  0  0
    0.4863    2.3971   -1.1953 C   0  0  0  0  0  0  0  0  0  0  0  0
    2.5670   -2.2827    4.0333 C   0  0  0  0  0  0  0  0  0  0  0  0
    2.0180   -0.7777    0.4795 C   0  0  0  0  0  0  0  0  0  0  0  0
    2.8012   -2.0581    2.5473 C   0  0  0  0  0  0  0  0  0  0  0  0
    1.8091   -1.0434    1.9736 C   0  0  0  0  0  0  0  0  0  0  0  0
    2.4959    1.6331   -0.7073 H   0  0  0  0  0  0  0  0  0  0  0  0
    0.0006   -0.0067   -0.0134 H   0  0  0  0  0  0  0  0  0  0  0  0
    0.6884    2.5539   -2.2593 H   0  0  0  0  0  0  0  0  0  0  0  0
    0.6106    3.3529   -0.6768 H   0  0  0  0  0  0  0  0  0  0  0  0
   -0.5572    2.0845   -1.0885 H   0  0  0  0  0  0  0  0  0  0  0  0
    2.6830   -1.3497    4.5939 H   0  0  0  0  0  0  0  0  0  0  0  0
    1.5606   -2.6719    4.2175 H   0  0  0  0  0  0  0  0  0  0  0  0
    3.2879   -3.0068    4.4254 H   0  0  0  0  0  0  0  0  0  0  0  0
    1.8702   -1.7168   -0.0675 H   0  0  0  0  0  0  0  0  0  0  0  0
    3.0571   -0.4743    0.3033 H   0  0  0  0  0  0  0  0  0  0  0  0
    2.7024   -3.0141    2.0199 H   0  0  0  0  0  0  0  0  0  0  0  0
    3.8301   -1.7107    2.4010 H   0  0  0  0  0  0  0  0  0  0  0  0
    0.7885   -1.4199    2.1165 H   0  0  0  0  0  0  0  0  0  0  0  0
    1.8788   -0.1017    2.5328 H   0  0  0  0  0  0  0  0  0  0  0  0
  1  2  2  0  0  0  0
  1  3  1  0  0  0  0
  2  5  1  0  0  0  0
  4  6  1  0  0  0  0
  5  7  1  0  0  0  0
  6  7  1  0  0  0  0
  1  8  1  0  0  0  0
  2  9  1  0  0  0  0
  3 10  1  0  0  0  0
  3 11  1  0  0  0  0
  3 12  1  0  0  0  0
  4 13  1  0  0  0  0
  4 14  1  0  0  0  0
  4 15  1  0  0  0  0
  5 16  1  0  0  0  0
  5 17  1  0  0  0  0
  6 18  1  0  0  0  0
  6 19  1  0  0  0  0
  7 20  1  0  0  0  0
  7 21  1  0  0  0  0
M  END
$$$$
