123_trichlorobenzene
  -OEChem-10241310033D

 12 12  0     0  0  0  0  0  0999 V2000
    1.8846   -1.0376   -0.1090 C   0  0  0  0  0  0  0  0  0  0  0  0
    0.8176   -0.4410    0.5626 C   0  0  0  0  0  0  0  0  0  0  0  0
    2.9348   -1.6038    0.6137 C   0  0  0  0  0  0  0  0  0  0  0  0
    0.8008   -0.4105    1.9570 C   0  0  0  0  0  0  0  0  0  0  0  0
    2.9180   -1.5734    2.0082 C   0  0  0  0  0  0  0  0  0  0  0  0
    1.8509   -0.9767    2.6799 C   0  0  0  0  0  0  0  0  0  0  0  0
   -0.5560    0.3471    2.7183 Cl  0  0  0  0  0  0  0  0  0  0  0  0
    4.2525   -2.2993    2.8366 Cl  0  0  0  0  0  0  0  0  0  0  0  0
    1.8277   -0.9420    4.4177 Cl  0  0  0  0  0  0  0  0  0  0  0  0
    1.8979   -1.0608   -1.1947 H   0  0  0  0  0  0  0  0  0  0  0  0
    0.0077   -0.0056   -0.0173 H   0  0  0  0  0  0  0  0  0  0  0  0
    3.7583   -2.0634    0.0727 H   0  0  0  0  0  0  0  0  0  0  0  0
  1  2  1  0  0  0  0
  1  3  2  0  0  0  0
  2  4  2  0  0  0  0
  3  5  1  0  0  0  0
  4  6  1  0  0  0  0
  4  7  1  0  0  0  0
  5  6  2  0  0  0  0
  5  8  1  0  0  0  0
  6  9  1  0  0  0  0
  1 10  1  0  0  0  0
  2 11  1  0  0  0  0
  3 12  1  0  0  0  0
M  END
$$$$
