hexanal
  -OEChem-10241310023D

 19 18  0     0  0  0  0  0  0999 V2000
    1.0801    2.1730   -6.8042 C   0  0  0  0  0  0  0  0  0  0  0  0
   -0.1636   -0.2887   -1.0437 C   0  0  0  0  0  0  0  0  0  0  0  0
    0.5536    1.1252   -5.8514 C   0  0  0  0  0  0  0  0  0  0  0  0
    0.4168    0.7620   -1.9768 C   0  0  0  0  0  0  0  0  0  0  0  0
    0.7706    1.4609   -4.3783 C   0  0  0  0  0  0  0  0  0  0  0  0
    0.1592    0.4130   -3.4430 C   0  0  0  0  0  0  0  0  0  0  0  0
    1.6925    3.1814   -6.4704 O   0  0  0  0  0  0  0  0  0  0  0  0
    0.8557    1.9852   -7.8686 H   0  0  0  0  0  0  0  0  0  0  0  0
    0.0294   -0.0177   -0.0009 H   0  0  0  0  0  0  0  0  0  0  0  0
    0.2865   -1.2692   -1.2289 H   0  0  0  0  0  0  0  0  0  0  0  0
   -1.2466   -0.3766   -1.1768 H   0  0  0  0  0  0  0  0  0  0  0  0
    1.0227    0.1687   -6.1049 H   0  0  0  0  0  0  0  0  0  0  0  0
   -0.5202    1.0343   -6.0496 H   0  0  0  0  0  0  0  0  0  0  0  0
    1.4951    0.8453   -1.7980 H   0  0  0  0  0  0  0  0  0  0  0  0
   -0.0275    1.7361   -1.7417 H   0  0  0  0  0  0  0  0  0  0  0  0
    1.8412    1.5700   -4.1670 H   0  0  0  0  0  0  0  0  0  0  0  0
    0.3039    2.4319   -4.1720 H   0  0  0  0  0  0  0  0  0  0  0  0
   -0.9215    0.3508   -3.6200 H   0  0  0  0  0  0  0  0  0  0  0  0
    0.5775   -0.5766   -3.6596 H   0  0  0  0  0  0  0  0  0  0  0  0
  1  3  1  0  0  0  0
  1  7  2  0  0  0  0
  2  4  1  0  0  0  0
  3  5  1  0  0  0  0
  4  6  1  0  0  0  0
  5  6  1  0  0  0  0
  1  8  1  0  0  0  0
  2  9  1  0  0  0  0
  2 10  1  0  0  0  0
  2 11  1  0  0  0  0
  3 12  1  0  0  0  0
  3 13  1  0  0  0  0
  4 14  1  0  0  0  0
  4 15  1  0  0  0  0
  5 16  1  0  0  0  0
  5 17  1  0  0  0  0
  6 18  1  0  0  0  0
  6 19  1  0  0  0  0
M  END
$$$$
