2_bromopropane
  -OEChem-10241310043D

 11 10  0     0  0  0  0  0  0999 V2000
    0.7777   -0.6550    0.4066 C   0  0  0  0  0  0  0  0  0  0  0  0
    1.2374    0.9192    2.3226 C   0  0  0  0  0  0  0  0  0  0  0  0
    0.8743   -0.4978    1.9142 C   0  0  0  0  0  0  0  0  0  0  0  0
    2.2421   -1.7220    2.5920 Br  0  0  0  0  0  0  0  0  0  0  0  0
    0.5234   -1.6845    0.1318 H   0  0  0  0  0  0  0  0  0  0  0  0
    0.0000    0.0000    0.0000 H   0  0  0  0  0  0  0  0  0  0  0  0
    1.7224   -0.4034   -0.0884 H   0  0  0  0  0  0  0  0  0  0  0  0
    1.3098    1.0104    3.4120 H   0  0  0  0  0  0  0  0  0  0  0  0
    0.4754    1.6267    1.9791 H   0  0  0  0  0  0  0  0  0  0  0  0
    2.1995    1.2286    1.8992 H   0  0  0  0  0  0  0  0  0  0  0  0
   -0.0617   -0.8049    2.3911 H   0  0  0  0  0  0  0  0  0  0  0  0
  1  3  1  0  0  0  0
  2  3  1  0  0  0  0
  3  4  1  0  0  0  0
  1  5  1  0  0  0  0
  1  6  1  0  0  0  0
  1  7  1  0  0  0  0
  2  8  1  0  0  0  0
  2  9  1  0  0  0  0
  2 10  1  0  0  0  0
  3 11  1  0  0  0  0
M  END
$$$$
