SAMPL4_035
  -OEChem-10241310023D

 15 15  0     0  0  0  0  0  0999 V2000
    2.6000   -1.4240   -0.3850 C   0  0  0  0  0  0  0  0  0  0  0  0
    3.4990   -1.9540    0.5400 C   0  0  0  0  0  0  0  0  0  0  0  0
    1.4370   -0.7930    0.0550 C   0  0  0  0  0  0  0  0  0  0  0  0
    3.2350   -1.8520    1.9060 C   0  0  0  0  0  0  0  0  0  0  0  0
    1.1720   -0.6910    1.4210 C   0  0  0  0  0  0  0  0  0  0  0  0
    2.0710   -1.2200    2.3460 C   0  0  0  0  0  0  0  0  0  0  0  0
   -0.0480   -0.0280    1.8590 C   0  0  0  0  0  0  0  0  0  0  0  0
   -0.3530    0.1020    3.0460 O   0  0  0  0  0  0  0  0  0  0  0  0
    1.8320   -1.1290    3.6850 O   0  0  0  0  0  0  0  0  0  0  0  0
    2.8060   -1.5030   -1.4490 H   0  0  0  0  0  0  0  0  0  0  0  0
    4.4040   -2.4460    0.1970 H   0  0  0  0  0  0  0  0  0  0  0  0
    0.7440   -0.3830   -0.6760 H   0  0  0  0  0  0  0  0  0  0  0  0
    3.9390   -2.2670    2.6220 H   0  0  0  0  0  0  0  0  0  0  0  0
   -0.7210    0.3720    1.0710 H   0  0  0  0  0  0  0  0  0  0  0  0
    0.9930   -0.6690    3.8440 H   0  0  0  0  0  0  0  0  0  0  0  0
  1  2  2  0  0  0  0
  1  3  1  0  0  0  0
  2  4  1  0  0  0  0
  3  5  2  0  0  0  0
  4  6  2  0  0  0  0
  5  6  1  0  0  0  0
  5  7  1  0  0  0  0
  6  9  1  0  0  0  0
  7  8  2  0  0  0  0
  1 10  1  0  0  0  0
  2 11  1  0  0  0  0
  3 12  1  0  0  0  0
  4 13  1  0  0  0  0
  7 14  1  0  0  0  0
  9 15  1  0  0  0  0
M  END
$$$$
