3_formylpyridine
  -OEChem-10241310033D

 13 13  0     0  0  0  0  0  0999 V2000
    0.2061   -0.4420    0.9680 C   0  0  0  0  0  0  0  0  0  0  0  0
    1.3347   -0.0801    1.6952 C   0  0  0  0  0  0  0  0  0  0  0  0
   -0.6461   -1.3849    1.5199 C   0  0  0  0  0  0  0  0  0  0  0  0
    0.6597   -1.5966    3.3985 C   0  0  0  0  0  0  0  0  0  0  0  0
    1.5731   -0.6637    2.9345 C   0  0  0  0  0  0  0  0  0  0  0  0
    2.7429   -0.3065    3.7179 C   0  0  0  0  0  0  0  0  0  0  0  0
   -0.4477   -1.9735    2.7207 N   0  0  0  0  0  0  0  0  0  0  0  0
    2.9924   -0.7994    4.8226 O   0  0  0  0  0  0  0  0  0  0  0  0
   -0.0001    0.0001    0.0000 H   0  0  0  0  0  0  0  0  0  0  0  0
    2.0212    0.6571    1.2875 H   0  0  0  0  0  0  0  0  0  0  0  0
   -1.5405   -1.7009    0.9932 H   0  0  0  0  0  0  0  0  0  0  0  0
    0.7917   -2.0862    4.3586 H   0  0  0  0  0  0  0  0  0  0  0  0
    3.4372    0.4494    3.2883 H   0  0  0  0  0  0  0  0  0  0  0  0
  1  2  1  0  0  0  0
  1  3  2  0  0  0  0
  2  5  2  0  0  0  0
  3  7  1  0  0  0  0
  4  5  1  0  0  0  0
  4  7  2  0  0  0  0
  5  6  1  0  0  0  0
  6  8  2  0  0  0  0
  1  9  1  0  0  0  0
  2 10  1  0  0  0  0
  3 11  1  0  0  0  0
  4 12  1  0  0  0  0
  6 13  1  0  0  0  0
M  END
$$$$
