CUP08063_AM1BCC_v1_0
  -OEChem-10241310023D

 35 35  0     0  0  0  0  0  0999 V2000
    4.1056   -2.9695    1.6072 C   0  0  0  0  0  0  0  0  0  0  0  0
    4.7150   -4.2059    1.5174 C   0  0  0  0  0  0  0  0  0  0  0  0
    3.0739   -2.9252    2.5245 C   0  0  0  0  0  0  0  0  0  0  0  0
    3.3768   -5.0886    3.2045 C   0  0  0  0  0  0  0  0  0  0  0  0
    1.3227   -1.5736    1.8727 C   0  0  0  0  0  0  0  0  0  0  0  0
    4.4715   -1.8090    0.7421 C   0  0  0  0  0  0  0  0  0  0  0  0
    5.8218   -4.4778    0.5410 C   0  0  0  0  0  0  0  0  0  0  0  0
    3.4612   -7.4583    3.5322 C   0  0  0  0  0  0  0  0  0  0  0  0
    1.7059   -6.0789    4.6018 C   0  0  0  0  0  0  0  0  0  0  0  0
   -0.6947   -0.2609    1.4553 C   0  0  0  0  0  0  0  0  0  0  0  0
    0.6983    0.2672    3.4292 C   0  0  0  0  0  0  0  0  0  0  0  0
    4.3652   -5.2466    2.3071 N   0  0  0  0  0  0  0  0  0  0  0  0
    2.7214   -3.9315    3.3435 N   0  0  0  0  0  0  0  0  0  0  0  0
    3.0439   -6.1606    4.0381 N   0  0  0  0  0  0  0  0  0  0  0  0
    0.5468   -0.4564    2.1786 N   0  0  0  0  0  0  0  0  0  0  0  0
    1.0893   -2.3068    0.9154 O   0  0  0  0  0  0  0  0  0  0  0  0
    2.3859   -1.7295    2.7461 O   0  0  0  0  0  0  0  0  0  0  0  0
    3.9653   -1.8862   -0.2251 H   0  0  0  0  0  0  0  0  0  0  0  0
    4.1955   -0.8557    1.2044 H   0  0  0  0  0  0  0  0  0  0  0  0
    5.5522   -1.7635    0.5739 H   0  0  0  0  0  0  0  0  0  0  0  0
    6.7057   -3.8838    0.7923 H   0  0  0  0  0  0  0  0  0  0  0  0
    6.1097   -5.5343    0.5639 H   0  0  0  0  0  0  0  0  0  0  0  0
    5.5010   -4.2428   -0.4786 H   0  0  0  0  0  0  0  0  0  0  0  0
    3.1889   -8.2475    4.2424 H   0  0  0  0  0  0  0  0  0  0  0  0
    4.5493   -7.5155    3.4125 H   0  0  0  0  0  0  0  0  0  0  0  0
    2.9790   -7.6913    2.5755 H   0  0  0  0  0  0  0  0  0  0  0  0
    1.5181   -6.9361    5.2584 H   0  0  0  0  0  0  0  0  0  0  0  0
    0.9386   -6.0853    3.8188 H   0  0  0  0  0  0  0  0  0  0  0  0
    1.5815   -5.1842    5.2227 H   0  0  0  0  0  0  0  0  0  0  0  0
   -1.5101   -0.7104    2.0300 H   0  0  0  0  0  0  0  0  0  0  0  0
   -0.6606   -0.7250    0.4660 H   0  0  0  0  0  0  0  0  0  0  0  0
   -0.8767    0.8108    1.3338 H   0  0  0  0  0  0  0  0  0  0  0  0
    0.4020    1.3098    3.2821 H   0  0  0  0  0  0  0  0  0  0  0  0
    1.7312    0.2486    3.7851 H   0  0  0  0  0  0  0  0  0  0  0  0
    0.0534   -0.1971    4.1811 H   0  0  0  0  0  0  0  0  0  0  0  0
  1  2  1  0  0  0  0
  1  3  2  0  0  0  0
  1  6  1  0  0  0  0
  2  7  1  0  0  0  0
  2 12  2  0  0  0  0
  3 13  1  0  0  0  0
  3 17  1  0  0  0  0
  4 12  1  0  0  0  0
  4 13  2  0  0  0  0
  4 14  1  0  0  0  0
  5 15  1  0  0  0  0
  5 16  2  0  0  0  0
  5 17  1  0  0  0  0
  8 14  1  0  0  0  0
  9 14  1  0  0  0  0
 10 15  1  0  0  0  0
 11 15  1  0  0  0  0
  6 18  1  0  0  0  0
  6 19  1  0  0  0  0
  6 20  1  0  0  0  0
  7 21  1  0  0  0  0
  7 22  1  0  0  0  0
  7 23  1  0  0  0  0
  8 24  1  0  0  0  0
  8 25  1  0  0  0  0
  8 26  1  0  0  0  0
  9 27  1  0  0  0  0
  9 28  1  0  0  0  0
  9 29  1  0  0  0  0
 10 30  1  0  0  0  0
 10 31  1  0  0  0  0
 10 32  1  0  0  0  0
 11 33  1  0  0  0  0
 11 34  1  0  0  0  0
 11 35  1  0  0  0  0
M  END
$$$$
