propan_1_ol
  -OEChem-10241310023D

 12 11  0     0  0  0  0  0  0999 V2000
   -0.0035   -0.6640    0.8700 C   0  0  0  0  0  0  0  0  0  0  0  0
    1.2444   -0.4434    1.7060 C   0  0  0  0  0  0  0  0  0  0  0  0
    1.2749   -1.3494    2.9273 C   0  0  0  0  0  0  0  0  0  0  0  0
    2.4570   -1.0814    3.6686 O   0  0  0  0  0  0  0  0  0  0  0  0
   -0.9070   -0.4562    1.4521 H   0  0  0  0  0  0  0  0  0  0  0  0
    0.0000    0.0000   -0.0000 H   0  0  0  0  0  0  0  0  0  0  0  0
   -0.0566   -1.6961    0.5094 H   0  0  0  0  0  0  0  0  0  0  0  0
    1.2990    0.6047    2.0239 H   0  0  0  0  0  0  0  0  0  0  0  0
    2.1379   -0.6194    1.0950 H   0  0  0  0  0  0  0  0  0  0  0  0
    0.4098   -1.1652    3.5724 H   0  0  0  0  0  0  0  0  0  0  0  0
    1.2804   -2.4035    2.6318 H   0  0  0  0  0  0  0  0  0  0  0  0
    3.1748   -0.9751    3.0234 H   0  0  0  0  0  0  0  0  0  0  0  0
  1  2  1  0  0  0  0
  2  3  1  0  0  0  0
  3  4  1  0  0  0  0
  1  5  1  0  0  0  0
  1  6  1  0  0  0  0
  1  7  1  0  0  0  0
  2  8  1  0  0  0  0
  2  9  1  0  0  0  0
  3 10  1  0  0  0  0
  3 11  1  0  0  0  0
  4 12  1  0  0  0  0
M  END
$$$$
