2_methoxyethanolJG@337
  -OEChem-10241310033D

 13 12  0     0  0  0  0  0  0999 V2000
   -4.3672   -0.3731   -0.1946 C   0  0  0  0  0  0  0  0  0  0  0  0
   -0.9936    0.8435    0.6398 C   0  0  0  0  0  0  0  0  0  0  0  0
   -2.4965    0.6776    0.7826 C   0  0  0  0  0  0  0  0  0  0  0  0
   -0.7194    1.6297   -0.5137 O   0  0  0  0  0  0  0  0  0  0  0  0
   -2.9626   -0.1688   -0.2695 O   0  0  0  0  0  0  0  0  0  0  0  0
   -4.6339   -0.8592    0.7488 H   0  0  0  0  0  0  0  0  0  0  0  0
   -4.6648   -1.0254   -1.0200 H   0  0  0  0  0  0  0  0  0  0  0  0
   -4.8985    0.5785   -0.2921 H   0  0  0  0  0  0  0  0  0  0  0  0
   -0.4999   -0.1255    0.5174 H   0  0  0  0  0  0  0  0  0  0  0  0
   -0.5815    1.3595    1.5119 H   0  0  0  0  0  0  0  0  0  0  0  0
   -2.9972    1.6496    0.7100 H   0  0  0  0  0  0  0  0  0  0  0  0
   -2.7280    0.2135    1.7474 H   0  0  0  0  0  0  0  0  0  0  0  0
    0.2468    1.7233   -0.5718 H   0  0  0  0  0  0  0  0  0  0  0  0
  1  5  1  0  0  0  0
  1  6  1  0  0  0  0
  1  7  1  0  0  0  0
  1  8  1  0  0  0  0
  2  3  1  0  0  0  0
  2  4  1  0  0  0  0
  2  9  1  0  0  0  0
  2 10  1  0  0  0  0
  3  5  1  0  0  0  0
  3 11  1  0  0  0  0
  3 12  1  0  0  0  0
  4 13  1  0  0  0  0
M  END
$$$$
