chlorofluoromethane
  -OEChem-10241310023D

  5  4  0     0  0  0  0  0  0999 V2000
   -0.5233    0.9585    0.0273 C   0  0  0  0  0  0  0  0  0  0  0  0
   -1.3057    1.0628   -1.0762 F   0  0  0  0  0  0  0  0  0  0  0  0
   -1.5247    1.0429    1.4780 Cl  0  0  0  0  0  0  0  0  0  0  0  0
    0.1939    1.7825    0.0308 H   0  0  0  0  0  0  0  0  0  0  0  0
    0.0000    0.0000   -0.0000 H   0  0  0  0  0  0  0  0  0  0  0  0
  1  2  1  0  0  0  0
  1  3  1  0  0  0  0
  1  4  1  0  0  0  0
  1  5  1  0  0  0  0
M  END
$$$$
