bromoethane
  -OEChem-10241310043D

  8  7  0     0  0  0  0  0  0999 V2000
    0.0125   -0.7247    0.8210 C   0  0  0  0  0  0  0  0  0  0  0  0
    1.1399   -0.4427    1.7865 C   0  0  0  0  0  0  0  0  0  0  0  0
    2.8461   -0.5455    0.8594 Br  0  0  0  0  0  0  0  0  0  0  0  0
   -0.9510   -0.6676    1.3370 H   0  0  0  0  0  0  0  0  0  0  0  0
    0.0000   -0.0000    0.0000 H   0  0  0  0  0  0  0  0  0  0  0  0
    0.1031   -1.7247    0.3836 H   0  0  0  0  0  0  0  0  0  0  0  0
    1.1722   -1.1779    2.5944 H   0  0  0  0  0  0  0  0  0  0  0  0
    1.0673    0.5629    2.2082 H   0  0  0  0  0  0  0  0  0  0  0  0
  1  2  1  0  0  0  0
  2  3  1  0  0  0  0
  1  4  1  0  0  0  0
  1  5  1  0  0  0  0
  1  6  1  0  0  0  0
  2  7  1  0  0  0  0
  2  8  1  0  0  0  0
M  END
$$$$
