trimethyl
  -OEChem-10241310033D

 20 19  0     0  0  0  0  0  0999 V2000
   -0.0480   -0.9850   -0.3150 C   0  0  0  0  0  0  0  0  0  0  0  0
   -2.7160    0.3590    1.3310 C   0  0  0  0  0  0  0  0  0  0  0  0
   -2.5540   -3.7030    1.4930 C   0  0  0  0  0  0  0  0  0  0  0  0
   -1.3550   -1.5980    1.6330 C   0  0  0  0  0  0  0  0  0  0  0  0
   -0.1310   -2.0160    2.4570 C   0  0  0  0  0  0  0  0  0  0  0  0
   -1.1220   -1.7450    0.2210 O   0  0  0  0  0  0  0  0  0  0  0  0
   -1.6020   -0.2210    1.9980 O   0  0  0  0  0  0  0  0  0  0  0  0
   -2.4890   -2.3940    2.0420 O   0  0  0  0  0  0  0  0  0  0  0  0
    0.9460   -1.2600    2.1410 F   0  0  0  0  0  0  0  0  0  0  0  0
    0.2100   -3.3040    2.2280 F   0  0  0  0  0  0  0  0  0  0  0  0
   -0.3480   -1.8860    3.7840 F   0  0  0  0  0  0  0  0  0  0  0  0
    0.0340   -1.1750   -1.3870 H   0  0  0  0  0  0  0  0  0  0  0  0
    0.8820   -1.2630    0.1880 H   0  0  0  0  0  0  0  0  0  0  0  0
   -0.2460    0.0760   -0.1490 H   0  0  0  0  0  0  0  0  0  0  0  0
   -2.8390    1.3950    1.6570 H   0  0  0  0  0  0  0  0  0  0  0  0
   -3.6180   -0.2150    1.5580 H   0  0  0  0  0  0  0  0  0  0  0  0
   -2.5350    0.3380    0.2530 H   0  0  0  0  0  0  0  0  0  0  0  0
   -3.4460   -4.2120    1.8680 H   0  0  0  0  0  0  0  0  0  0  0  0
   -1.6580   -4.2620    1.7750 H   0  0  0  0  0  0  0  0  0  0  0  0
   -2.6090   -3.6300    0.4050 H   0  0  0  0  0  0  0  0  0  0  0  0
  1  6  1  0  0  0  0
  2  7  1  0  0  0  0
  3  8  1  0  0  0  0
  4  5  1  0  0  0  0
  4  6  1  0  0  0  0
  4  7  1  0  0  0  0
  4  8  1  0  0  0  0
  5  9  1  0  0  0  0
  5 10  1  0  0  0  0
  5 11  1  0  0  0  0
  1 12  1  0  0  0  0
  1 13  1  0  0  0  0
  1 14  1  0  0  0  0
  2 15  1  0  0  0  0
  2 16  1  0  0  0  0
  2 17  1  0  0  0  0
  3 18  1  0  0  0  0
  3 19  1  0  0  0  0
  3 20  1  0  0  0  0
M  END
$$$$
