ch3ph.xyz
  -OEChem-10241310023D

 25 25  0     0  0  0  0  0  0999 V2000
    1.3376    2.4162    0.0231 C   0  0  0  0  0  0  0  0  0  0  0  0
   -0.7133    1.1854    0.0000 C   0  0  0  0  0  0  0  0  0  0  0  0
    2.0491    1.2256    0.0000 C   0  0  0  0  0  0  0  0  0  0  0  0
    0.0000    0.0000    0.0000 C   0  0  0  0  0  0  0  0  0  0  0  0
   -0.0502    2.4075    0.0307 C   0  0  0  0  0  0  0  0  0  0  0  0
    1.3932    0.0000    0.0000 C   0  0  0  0  0  0  0  0  0  0  0  0
   -0.8691    3.6657   -0.0465 C   0  0  0  0  0  0  0  0  0  0  0  0
    2.1635   -1.2991    0.0104 C   0  0  0  0  0  0  0  0  0  0  0  0
   -1.2173    5.9813    0.4873 C   0  0  0  0  0  0  0  0  0  0  0  0
    0.1890    4.6528    1.9780 C   0  0  0  0  0  0  0  0  0  0  0  0
   -0.4888    4.7429    0.6967 N   0  0  0  0  0  0  0  0  0  0  0  0
   -1.8129    3.7149   -0.7951 O   0  0  0  0  0  0  0  0  0  0  0  0
    1.8707    3.3503    0.0140 H   0  0  0  0  0  0  0  0  0  0  0  0
   -1.7871    1.1724   -0.0350 H   0  0  0  0  0  0  0  0  0  0  0  0
    3.1247    1.2555   -0.0228 H   0  0  0  0  0  0  0  0  0  0  0  0
   -0.5320   -0.9358   -0.0145 H   0  0  0  0  0  0  0  0  0  0  0  0
    3.1895   -1.1502   -0.3059 H   0  0  0  0  0  0  0  0  0  0  0  0
    2.1824   -1.7278    1.0087 H   0  0  0  0  0  0  0  0  0  0  0  0
    1.7091   -2.0282   -0.6518 H   0  0  0  0  0  0  0  0  0  0  0  0
   -1.4604    6.0943   -0.5570 H   0  0  0  0  0  0  0  0  0  0  0  0
   -2.1417    6.0047    1.0605 H   0  0  0  0  0  0  0  0  0  0  0  0
   -0.5909    6.8081    0.8023 H   0  0  0  0  0  0  0  0  0  0  0  0
    0.5210    3.6477    2.1775 H   0  0  0  0  0  0  0  0  0  0  0  0
   -0.4878    4.9490    2.7760 H   0  0  0  0  0  0  0  0  0  0  0  0
    1.0489    5.3152    2.0001 H   0  0  0  0  0  0  0  0  0  0  0  0
  1  3  2  0  0  0  0
  1  5  1  0  0  0  0
  2  4  1  0  0  0  0
  2  5  2  0  0  0  0
  3  6  1  0  0  0  0
  4  6  2  0  0  0  0
  5  7  1  0  0  0  0
  6  8  1  0  0  0  0
  7 11  1  0  0  0  0
  7 12  2  0  0  0  0
  9 11  1  0  0  0  0
 10 11  1  0  0  0  0
  1 13  1  0  0  0  0
  2 14  1  0  0  0  0
  3 15  1  0  0  0  0
  4 16  1  0  0  0  0
  8 17  1  0  0  0  0
  8 18  1  0  0  0  0
  8 19  1  0  0  0  0
  9 20  1  0  0  0  0
  9 21  1  0  0  0  0
  9 22  1  0  0  0  0
 10 23  1  0  0  0  0
 10 24  1  0  0  0  0
 10 25  1  0  0  0  0
M  END
$$$$
