n_propyl_formate
  -OEChem-10241310043D

 14 13  0     0  0  0  0  0  0999 V2000
    2.6256   -1.8218    4.7997 C   0  0  0  0  0  0  0  0  0  0  0  0
   -0.0035   -0.6640    0.8700 C   0  0  0  0  0  0  0  0  0  0  0  0
    1.2444   -0.4434    1.7060 C   0  0  0  0  0  0  0  0  0  0  0  0
    1.2749   -1.3494    2.9273 C   0  0  0  0  0  0  0  0  0  0  0  0
    1.8774   -2.6811    5.2388 O   0  0  0  0  0  0  0  0  0  0  0  0
    2.4570   -1.0814    3.6686 O   0  0  0  0  0  0  0  0  0  0  0  0
    3.5699   -1.5249    5.2816 H   0  0  0  0  0  0  0  0  0  0  0  0
   -0.9070   -0.4562    1.4521 H   0  0  0  0  0  0  0  0  0  0  0  0
    0.0000    0.0000   -0.0000 H   0  0  0  0  0  0  0  0  0  0  0  0
   -0.0566   -1.6961    0.5094 H   0  0  0  0  0  0  0  0  0  0  0  0
    1.2990    0.6047    2.0239 H   0  0  0  0  0  0  0  0  0  0  0  0
    2.1379   -0.6194    1.0950 H   0  0  0  0  0  0  0  0  0  0  0  0
    0.4098   -1.1652    3.5724 H   0  0  0  0  0  0  0  0  0  0  0  0
    1.2804   -2.4035    2.6318 H   0  0  0  0  0  0  0  0  0  0  0  0
  1  5  2  0  0  0  0
  1  6  1  0  0  0  0
  2  3  1  0  0  0  0
  3  4  1  0  0  0  0
  4  6  1  0  0  0  0
  1  7  1  0  0  0  0
  2  8  1  0  0  0  0
  2  9  1  0  0  0  0
  2 10  1  0  0  0  0
  3 11  1  0  0  0  0
  3 12  1  0  0  0  0
  4 13  1  0  0  0  0
  4 14  1  0  0  0  0
M  END
$$$$
