NN_dimethyl_p_nitrobenzamide
  -OEChem-10241310033D

 24 24  0     0  0  0  0  0  0999 V2000
    0.8445   -0.3264    0.5966 C   0  0  0  0  0  0  0  0  0  0  0  0
    2.9578   -1.4948    0.6725 C   0  0  0  0  0  0  0  0  0  0  0  0
    0.8407   -0.2429    1.9890 C   0  0  0  0  0  0  0  0  0  0  0  0
    2.9539   -1.4113    2.0649 C   0  0  0  0  0  0  0  0  0  0  0  0
    1.9030   -0.9523   -0.0616 C   0  0  0  0  0  0  0  0  0  0  0  0
    1.8955   -0.7854    2.7231 C   0  0  0  0  0  0  0  0  0  0  0  0
    1.9073   -1.0377   -1.5134 C   0  0  0  0  0  0  0  0  0  0  0  0
    2.5646   -0.0244   -3.7094 C   0  0  0  0  0  0  0  0  0  0  0  0
    3.1112    1.1633   -1.6144 C   0  0  0  0  0  0  0  0  0  0  0  0
    1.8922   -0.6989    4.1402 N   0  3  0  0  0  0  0  0  0  0  0  0
    2.5066   -0.0028   -2.2546 N   0  0  0  0  0  0  0  0  0  0  0  0
    1.3852   -2.0404   -2.0186 O   0  0  0  0  0  0  0  0  0  0  0  0
    0.9311   -0.1304    4.7127 O   0  5  0  0  0  0  0  0  0  0  0  0
    2.8503   -1.1937    4.7820 O   0  0  0  0  0  0  0  0  0  0  0  0
    0.0179    0.1007    0.0342 H   0  0  0  0  0  0  0  0  0  0  0  0
    3.7867   -1.9858    0.1691 H   0  0  0  0  0  0  0  0  0  0  0  0
    0.0092    0.2472    2.4892 H   0  0  0  0  0  0  0  0  0  0  0  0
    3.7829   -1.8373    2.6249 H   0  0  0  0  0  0  0  0  0  0  0  0
    3.5919    0.1728   -4.0225 H   0  0  0  0  0  0  0  0  0  0  0  0
    1.8972    0.7469   -4.0999 H   0  0  0  0  0  0  0  0  0  0  0  0
    2.2460   -1.0083   -4.0603 H   0  0  0  0  0  0  0  0  0  0  0  0
    2.3449    1.6820   -1.0348 H   0  0  0  0  0  0  0  0  0  0  0  0
    3.5091    1.8232   -2.3885 H   0  0  0  0  0  0  0  0  0  0  0  0
    3.9169    0.8271   -0.9583 H   0  0  0  0  0  0  0  0  0  0  0  0
  1  3  1  0  0  0  0
  1  5  2  0  0  0  0
  2  4  2  0  0  0  0
  2  5  1  0  0  0  0
  3  6  2  0  0  0  0
  4  6  1  0  0  0  0
  5  7  1  0  0  0  0
  6 10  1  0  0  0  0
  7 11  1  0  0  0  0
  7 12  2  0  0  0  0
  8 11  1  0  0  0  0
  9 11  1  0  0  0  0
 10 13  1  0  0  0  0
 10 14  2  0  0  0  0
  1 15  1  0  0  0  0
  2 16  1  0  0  0  0
  3 17  1  0  0  0  0
  4 18  1  0  0  0  0
  8 19  1  0  0  0  0
  8 20  1  0  0  0  0
  8 21  1  0  0  0  0
  9 22  1  0  0  0  0
  9 23  1  0  0  0  0
  9 24  1  0  0  0  0
M  CHG  2  10   1  13  -1
M  END
$$$$
