2_iodophenol
  -OEChem-10241310043D

 13 13  0     0  0  0  0  0  0999 V2000
    1.8846   -1.0376   -0.1090 C   0  0  0  0  0  0  0  0  0  0  0  0
    0.8176   -0.4410    0.5626 C   0  0  0  0  0  0  0  0  0  0  0  0
    2.9348   -1.6038    0.6137 C   0  0  0  0  0  0  0  0  0  0  0  0
    0.8008   -0.4105    1.9570 C   0  0  0  0  0  0  0  0  0  0  0  0
    2.9180   -1.5734    2.0082 C   0  0  0  0  0  0  0  0  0  0  0  0
    1.8509   -0.9767    2.6799 C   0  0  0  0  0  0  0  0  0  0  0  0
    3.9637   -2.1380    2.6766 O   0  0  0  0  0  0  0  0  0  0  0  0
    1.7764   -0.9042    4.7672 I   0  0  0  0  0  0  0  0  0  0  0  0
    1.8977   -1.0611   -1.1946 H   0  0  0  0  0  0  0  0  0  0  0  0
    0.0002   -0.0005   -0.0003 H   0  0  0  0  0  0  0  0  0  0  0  0
    3.7625   -2.0664    0.0835 H   0  0  0  0  0  0  0  0  0  0  0  0
   -0.0416    0.0603    2.4580 H   0  0  0  0  0  0  0  0  0  0  0  0
    3.8881   -1.9140    3.6214 H   0  0  0  0  0  0  0  0  0  0  0  0
  1  2  1  0  0  0  0
  1  3  2  0  0  0  0
  2  4  2  0  0  0  0
  3  5  1  0  0  0  0
  4  6  1  0  0  0  0
  5  6  2  0  0  0  0
  5  7  1  0  0  0  0
  6  8  1  0  0  0  0
  1  9  1  0  0  0  0
  2 10  1  0  0  0  0
  3 11  1  0  0  0  0
  4 12  1  0  0  0  0
  7 13  1  0  0  0  0
M  END
$$$$
