imidazole
  -OEChem-10241310033D

  9  9  0     0  0  0  0  0  0999 V2000
    2.0280   -0.7312   -0.6604 C   0  0  0  0  0  0  0  0  0  0  0  0
    0.6793   -0.7426   -0.3926 C   0  0  0  0  0  0  0  0  0  0  0  0
    1.3580   -2.6792   -1.1960 C   0  0  0  0  0  0  0  0  0  0  0  0
    2.4441   -1.9395   -1.1608 N   0  0  0  0  0  0  0  0  0  0  0  0
    0.2641   -1.9971   -0.7406 N   0  0  0  0  0  0  0  0  0  0  0  0
    2.7205    0.0855   -0.5180 H   0  0  0  0  0  0  0  0  0  0  0  0
    0.0001   -0.0001    0.0003 H   0  0  0  0  0  0  0  0  0  0  0  0
    1.2957   -3.7032   -1.5359 H   0  0  0  0  0  0  0  0  0  0  0  0
   -0.6791   -2.3557   -0.6736 H   0  0  0  0  0  0  0  0  0  0  0  0
  1  2  2  0  0  0  0
  1  4  1  0  0  0  0
  2  5  1  0  0  0  0
  3  4  2  0  0  0  0
  3  5  1  0  0  0  0
  1  6  1  0  0  0  0
  2  7  1  0  0  0  0
  3  8  1  0  0  0  0
  5  9  1  0  0  0  0
M  END
$$$$
