5-iodouracil
  -OEChem-10241310023D

 12 12  0     0  0  0  0  0  0999 V2000
   -1.5240    0.5120    1.2700 C   0  0  0  0  0  0  0  0  0  0  0  0
   -2.6200    0.1500    1.9480 C   0  0  0  0  0  0  0  0  0  0  0  0
   -3.0940   -1.2620    1.8360 C   0  0  0  0  0  0  0  0  0  0  0  0
   -1.1750   -1.6840    0.3080 C   0  0  0  0  0  0  0  0  0  0  0  0
   -0.8210   -0.3560    0.4810 N   0  0  0  0  0  0  0  0  0  0  0  0
   -2.3170   -2.0710    1.0120 N   0  0  0  0  0  0  0  0  0  0  0  0
   -4.0890   -1.6730    2.4260 O   0  0  0  0  0  0  0  0  0  0  0  0
   -0.5380   -2.4600   -0.4050 O   0  0  0  0  0  0  0  0  0  0  0  0
   -3.6560    1.4670    3.1240 I   0  0  0  0  0  0  0  0  0  0  0  0
   -1.1190    1.5180    1.3010 H   0  0  0  0  0  0  0  0  0  0  0  0
   -0.0000    0.0000   -0.0000 H   0  0  0  0  0  0  0  0  0  0  0  0
   -2.6100   -3.0390    0.9120 H   0  0  0  0  0  0  0  0  0  0  0  0
  1  2  2  0  0  0  0
  1  5  1  0  0  0  0
  2  3  1  0  0  0  0
  2  9  1  0  0  0  0
  3  6  1  0  0  0  0
  3  7  2  0  0  0  0
  4  5  1  0  0  0  0
  4  6  1  0  0  0  0
  4  8  2  0  0  0  0
  1 10  1  0  0  0  0
  5 11  1  0  0  0  0
  6 12  1  0  0  0  0
M  END
$$$$
