SAMPL4_009
  -OEChem-10241310033D

 23 23  0     0  0  0  0  0  0999 V2000
    1.6890   -0.9010    3.3120 C   0  0  0  0  0  0  0  0  0  0  0  0
    2.9110   -1.5650    0.8940 C   0  0  0  0  0  0  0  0  0  0  0  0
    1.6780   -0.9120    0.8960 C   0  0  0  0  0  0  0  0  0  0  0  0
    3.5320   -1.8860    2.1000 C   0  0  0  0  0  0  0  0  0  0  0  0
    1.0670   -0.5800    2.1060 C   0  0  0  0  0  0  0  0  0  0  0  0
    2.9220   -1.5540    3.3100 C   0  0  0  0  0  0  0  0  0  0  0  0
    1.0490   -0.5530    4.5800 C   0  0  0  0  0  0  0  0  0  0  0  0
    0.2110   -1.5840   -0.8510 C   0  0  0  0  0  0  0  0  0  0  0  0
    4.7150   -3.9490    2.0730 C   0  0  0  0  0  0  0  0  0  0  0  0
   -0.0580   -0.9760    4.9060 O   0  0  0  0  0  0  0  0  0  0  0  0
    3.5080   -1.8890   -0.2890 O   0  0  0  0  0  0  0  0  0  0  0  0
    1.0860   -0.6060   -0.2950 O   0  0  0  0  0  0  0  0  0  0  0  0
    4.7390   -2.5250    2.0770 O   0  0  0  0  0  0  0  0  0  0  0  0
   -0.4640    0.2320    2.0880 Cl  0  0  0  0  0  0  0  0  0  0  0  0
    3.7110   -1.9610    4.7980 Cl  0  0  0  0  0  0  0  0  0  0  0  0
    1.6090    0.1240    5.2570 H   0  0  0  0  0  0  0  0  0  0  0  0
   -0.1930   -1.2160   -1.7970 H   0  0  0  0  0  0  0  0  0  0  0  0
   -0.6020   -1.7880   -0.1490 H   0  0  0  0  0  0  0  0  0  0  0  0
    0.7730   -2.5030   -1.0300 H   0  0  0  0  0  0  0  0  0  0  0  0
    5.7390   -4.3320    2.0540 H   0  0  0  0  0  0  0  0  0  0  0  0
    4.1660   -4.3030    1.1970 H   0  0  0  0  0  0  0  0  0  0  0  0
    4.2150   -4.2990    2.9800 H   0  0  0  0  0  0  0  0  0  0  0  0
    4.3530   -2.3360   -0.1240 H   0  0  0  0  0  0  0  0  0  0  0  0
  1  5  2  0  0  0  0
  1  6  1  0  0  0  0
  1  7  1  0  0  0  0
  2  3  2  0  0  0  0
  2  4  1  0  0  0  0
  2 11  1  0  0  0  0
  3  5  1  0  0  0  0
  3 12  1  0  0  0  0
  4  6  2  0  0  0  0
  4 13  1  0  0  0  0
  5 14  1  0  0  0  0
  6 15  1  0  0  0  0
  7 10  2  0  0  0  0
  8 12  1  0  0  0  0
  9 13  1  0  0  0  0
  7 16  1  0  0  0  0
  8 17  1  0  0  0  0
  8 18  1  0  0  0  0
  8 19  1  0  0  0  0
  9 20  1  0  0  0  0
  9 21  1  0  0  0  0
  9 22  1  0  0  0  0
 11 23  1  0  0  0  0
M  END
$$$$
