CUP08038_AM1BCC_v1_0
  -OEChem-10241310023D

 26 26  0     0  0  0  0  0  0999 V2000
   -3.6224    0.6659   -5.9464 C   0  0  0  0  0  0  0  0  0  0  0  0
   -2.4977   -1.4160   -6.4993 C   0  0  0  0  0  0  0  0  0  0  0  0
   -2.7050    0.8862   -4.9125 C   0  0  0  0  0  0  0  0  0  0  0  0
   -1.5878   -1.1853   -5.4646 C   0  0  0  0  0  0  0  0  0  0  0  0
   -3.5151   -0.4850   -6.7378 C   0  0  0  0  0  0  0  0  0  0  0  0
   -1.6860   -0.0354   -4.6752 C   0  0  0  0  0  0  0  0  0  0  0  0
    1.8141    0.3652   -2.0635 C   0  0  0  0  0  0  0  0  0  0  0  0
   -1.9104    2.3645   -0.8149 C   0  0  0  0  0  0  0  0  0  0  0  0
   -4.4781   -0.7183   -7.8213 N   0  3  0  0  0  0  0  0  0  0  0  0
   -5.3805    0.1160   -7.9802 O   0  5  0  0  0  0  0  0  0  0  0  0
   -4.3326   -1.7372   -8.5117 O   0  0  0  0  0  0  0  0  0  0  0  0
   -0.7450    0.0838   -3.6925 O   0  0  0  0  0  0  0  0  0  0  0  0
    0.5244    0.7716   -1.6497 O   0  0  0  0  0  0  0  0  0  0  0  0
   -1.8583    1.4703   -1.9090 O   0  0  0  0  0  0  0  0  0  0  0  0
   -0.4845    1.3805   -2.7636 P   0  0  0  0  0  0  0  0  0  0  0  0
    0.1076    3.0070   -3.6418 S   0  0  0  0  0  0  0  0  0  0  0  0
   -4.4099    1.3977   -6.1179 H   0  0  0  0  0  0  0  0  0  0  0  0
   -2.3999   -2.3168   -7.1016 H   0  0  0  0  0  0  0  0  0  0  0  0
   -2.8212    1.7832   -4.3114 H   0  0  0  0  0  0  0  0  0  0  0  0
   -0.7964   -1.9077   -5.2753 H   0  0  0  0  0  0  0  0  0  0  0  0
    2.2669   -0.2240   -1.2619 H   0  0  0  0  0  0  0  0  0  0  0  0
    2.4411    1.2405   -2.2502 H   0  0  0  0  0  0  0  0  0  0  0  0
    1.7587   -0.2530   -2.9635 H   0  0  0  0  0  0  0  0  0  0  0  0
   -2.8119    2.1514   -0.2348 H   0  0  0  0  0  0  0  0  0  0  0  0
   -1.9629    3.3950   -1.1748 H   0  0  0  0  0  0  0  0  0  0  0  0
   -1.0397    2.2397   -0.1660 H   0  0  0  0  0  0  0  0  0  0  0  0
  1  3  1  0  0  0  0
  1  5  2  0  0  0  0
  2  4  2  0  0  0  0
  2  5  1  0  0  0  0
  3  6  2  0  0  0  0
  4  6  1  0  0  0  0
  5  9  1  0  0  0  0
  6 12  1  0  0  0  0
  7 13  1  0  0  0  0
  8 14  1  0  0  0  0
  9 10  1  0  0  0  0
  9 11  2  0  0  0  0
 12 15  1  0  0  0  0
 13 15  1  0  0  0  0
 14 15  1  0  0  0  0
 15 16  2  0  0  0  0
  1 17  1  0  0  0  0
  2 18  1  0  0  0  0
  3 19  1  0  0  0  0
  4 20  1  0  0  0  0
  7 21  1  0  0  0  0
  7 22  1  0  0  0  0
  7 23  1  0  0  0  0
  8 24  1  0  0  0  0
  8 25  1  0  0  0  0
  8 26  1  0  0  0  0
M  CHG  2   9   1  10  -1
M  END
$$$$
