di_n_butylamine
  -OEChem-10241310033D

 28 27  0     0  0  0  0  0  0999 V2000
    3.4276    0.0979   -2.2479 C   0  0  0  0  0  0  0  0  0  0  0  0
   -3.4350    6.3892   -5.7324 C   0  0  0  0  0  0  0  0  0  0  0  0
    2.6489    1.3742   -1.9715 C   0  0  0  0  0  0  0  0  0  0  0  0
   -2.5368    6.0484   -4.5540 C   0  0  0  0  0  0  0  0  0  0  0  0
    1.7006    1.7126   -3.1223 C   0  0  0  0  0  0  0  0  0  0  0  0
   -1.6916    4.8053   -4.8344 C   0  0  0  0  0  0  0  0  0  0  0  0
    0.8962    2.9762   -2.8215 C   0  0  0  0  0  0  0  0  0  0  0  0
   -0.7664    4.4903   -3.6603 C   0  0  0  0  0  0  0  0  0  0  0  0
    0.0140    3.2929   -3.9383 N   0  0  0  0  0  0  0  0  0  0  0  0
    4.0995   -0.1245   -1.4130 H   0  0  0  0  0  0  0  0  0  0  0  0
    2.7521   -0.7537   -2.3769 H   0  0  0  0  0  0  0  0  0  0  0  0
    4.0336    0.1966   -3.1544 H   0  0  0  0  0  0  0  0  0  0  0  0
   -4.0304    7.2802   -5.5099 H   0  0  0  0  0  0  0  0  0  0  0  0
   -2.8435    6.5912   -6.6310 H   0  0  0  0  0  0  0  0  0  0  0  0
   -4.1236    5.5668   -5.9516 H   0  0  0  0  0  0  0  0  0  0  0  0
    2.0793    1.2537   -1.0427 H   0  0  0  0  0  0  0  0  0  0  0  0
    3.3541    2.1988   -1.8154 H   0  0  0  0  0  0  0  0  0  0  0  0
   -1.8835    6.9025   -4.3410 H   0  0  0  0  0  0  0  0  0  0  0  0
   -3.1569    5.8842   -3.6650 H   0  0  0  0  0  0  0  0  0  0  0  0
    2.2796    1.8517   -4.0442 H   0  0  0  0  0  0  0  0  0  0  0  0
    1.0194    0.8693   -3.2937 H   0  0  0  0  0  0  0  0  0  0  0  0
   -2.3520    3.9501   -5.0266 H   0  0  0  0  0  0  0  0  0  0  0  0
   -1.0984    4.9651   -5.7438 H   0  0  0  0  0  0  0  0  0  0  0  0
    0.2978    2.8375   -1.9144 H   0  0  0  0  0  0  0  0  0  0  0  0
    1.5717    3.8209   -2.6499 H   0  0  0  0  0  0  0  0  0  0  0  0
   -0.0883    5.3307   -3.4760 H   0  0  0  0  0  0  0  0  0  0  0  0
   -1.3539    4.3297   -2.7501 H   0  0  0  0  0  0  0  0  0  0  0  0
    0.5757    3.4441   -4.7752 H   0  0  0  0  0  0  0  0  0  0  0  0
  1  3  1  0  0  0  0
  2  4  1  0  0  0  0
  3  5  1  0  0  0  0
  4  6  1  0  0  0  0
  5  7  1  0  0  0  0
  6  8  1  0  0  0  0
  7  9  1  0  0  0  0
  8  9  1  0  0  0  0
  1 10  1  0  0  0  0
  1 11  1  0  0  0  0
  1 12  1  0  0  0  0
  2 13  1  0  0  0  0
  2 14  1  0  0  0  0
  2 15  1  0  0  0  0
  3 16  1  0  0  0  0
  3 17  1  0  0  0  0
  4 18  1  0  0  0  0
  4 19  1  0  0  0  0
  5 20  1  0  0  0  0
  5 21  1  0  0  0  0
  6 22  1  0  0  0  0
  6 23  1  0  0  0  0
  7 24  1  0  0  0  0
  7 25  1  0  0  0  0
  8 26  1  0  0  0  0
  8 27  1  0  0  0  0
  9 28  1  0  0  0  0
M  END
$$$$
