CUP08018_AM1BCC_v1_0
  -OEChem-10241310033D

 24 26  0     1  0  0  0  0  0999 V2000
    3.2617   -3.6674   -1.2374 C   0  0  0  0  0  0  0  0  0  0  0  0
    2.8387   -3.3819   -2.4742 C   0  0  0  0  0  0  0  0  0  0  0  0
   -0.4685   -0.9859   -0.0673 C   0  0  0  0  0  0  0  0  0  0  0  0
    1.2530   -2.7698   -0.2050 C   0  0  2  0  0  0  0  0  0  0  0  0
    0.7495   -2.4301   -1.6780 C   0  0  1  0  0  0  0  0  0  0  0  0
    0.2694   -2.0453    0.7327 C   0  0  1  0  0  0  0  0  0  0  0  0
   -0.4879   -1.5342   -1.4834 C   0  0  2  0  0  0  0  0  0  0  0  0
    2.8066   -2.5279   -0.3245 C   0  0  2  0  0  0  0  0  0  0  0  0
    2.0949   -2.0475   -2.4059 C   0  0  1  0  0  0  0  0  0  0  0  0
    2.9804   -1.3496   -1.3299 C   0  0  0  0  0  0  0  0  0  0  0  0
    3.9982   -5.0972   -0.7018 Cl  0  0  0  0  0  0  0  0  0  0  0  0
    2.9217   -4.3703   -3.8490 Cl  0  0  0  0  0  0  0  0  0  0  0  0
    0.8980   -1.3938    2.2419 Cl  0  0  0  0  0  0  0  0  0  0  0  0
   -0.7784   -0.2620   -2.6643 Cl  0  0  0  0  0  0  0  0  0  0  0  0
    3.7388   -2.4161    1.1571 Cl  0  0  0  0  0  0  0  0  0  0  0  0
    1.9904   -1.2351   -3.9568 Cl  0  0  0  0  0  0  0  0  0  0  0  0
    4.7026   -1.0644   -1.8527 Cl  0  0  0  0  0  0  0  0  0  0  0  0
    2.4174    0.2384   -0.7701 Cl  0  0  0  0  0  0  0  0  0  0  0  0
   -1.4904   -0.8569    0.3116 H   0  0  0  0  0  0  0  0  0  0  0  0
   -0.0077    0.0004    0.0027 H   0  0  0  0  0  0  0  0  0  0  0  0
    1.0957   -3.8438   -0.0171 H   0  0  0  0  0  0  0  0  0  0  0  0
    0.3693   -3.3538   -2.1425 H   0  0  0  0  0  0  0  0  0  0  0  0
   -0.4792   -2.7883    1.0385 H   0  0  0  0  0  0  0  0  0  0  0  0
   -1.3658   -2.1899   -1.5563 H   0  0  0  0  0  0  0  0  0  0  0  0
  1  2  2  0  0  0  0
  1  8  1  0  0  0  0
  1 11  1  0  0  0  0
  2  9  1  0  0  0  0
  2 12  1  0  0  0  0
  3  6  1  0  0  0  0
  3  7  1  0  0  0  0
  4  5  1  0  0  0  0
  4  6  1  0  0  0  0
  4  8  1  0  0  0  0
  5  7  1  0  0  0  0
  5  9  1  0  0  0  0
  6 13  1  0  0  0  0
  7 14  1  0  0  0  0
  8 10  1  0  0  0  0
  8 15  1  0  0  0  0
  9 10  1  0  0  0  0
  9 16  1  0  0  0  0
 10 17  1  0  0  0  0
 10 18  1  0  0  0  0
  3 19  1  0  0  0  0
  3 20  1  0  0  0  0
  4 21  1  0  0  0  0
  5 22  1  0  0  0  0
  6 23  1  0  0  0  0
  7 24  1  0  0  0  0
M  END
$$$$
