methylamine
  -OEChem-10241310033D

  7  6  0     0  0  0  0  0  0999 V2000
   -0.7670   -0.6855    0.3708 C   0  0  0  0  0  0  0  0  0  0  0  0
   -1.8451   -0.8015   -0.5949 N   0  0  0  0  0  0  0  0  0  0  0  0
   -1.1443   -0.3070    1.3251 H   0  0  0  0  0  0  0  0  0  0  0  0
    0.0000    0.0000    0.0000 H   0  0  0  0  0  0  0  0  0  0  0  0
   -0.3040   -1.6619    0.5391 H   0  0  0  0  0  0  0  0  0  0  0  0
   -2.2872    0.1083   -0.7200 H   0  0  0  0  0  0  0  0  0  0  0  0
   -2.5666   -1.4187   -0.2245 H   0  0  0  0  0  0  0  0  0  0  0  0
  1  2  1  0  0  0  0
  1  3  1  0  0  0  0
  1  4  1  0  0  0  0
  1  5  1  0  0  0  0
  2  6  1  0  0  0  0
  2  7  1  0  0  0  0
M  END
$$$$
