12_dibromoethane
  -OEChem-10241310023D

  8  7  0     0  0  0  0  0  0999 V2000
    0.6188   -0.7312    0.5282 C   0  0  0  0  0  0  0  0  0  0  0  0
    1.1142   -1.8289   -0.3811 C   0  0  0  0  0  0  0  0  0  0  0  0
   -0.4978   -1.5000    1.9242 Br  0  0  0  0  0  0  0  0  0  0  0  0
    2.1855   -1.0543   -1.8093 Br  0  0  0  0  0  0  0  0  0  0  0  0
    1.4361   -0.2087    1.0339 H   0  0  0  0  0  0  0  0  0  0  0  0
    0.0000   -0.0000    0.0000 H   0  0  0  0  0  0  0  0  0  0  0  0
    0.2958   -2.3714   -0.8633 H   0  0  0  0  0  0  0  0  0  0  0  0
    1.7580   -2.5432    0.1403 H   0  0  0  0  0  0  0  0  0  0  0  0
  1  2  1  0  0  0  0
  1  3  1  0  0  0  0
  2  4  1  0  0  0  0
  1  5  1  0  0  0  0
  1  6  1  0  0  0  0
  2  7  1  0  0  0  0
  2  8  1  0  0  0  0
M  END
$$$$
