fluorene
  -OEChem-10241310043D

 23 25  0     0  0  0  0  0  0999 V2000
   -5.3217   -3.2599    2.6134 C   0  0  0  0  0  0  0  0  0  0  0  0
   -0.3097   -1.0173    0.2253 C   0  0  0  0  0  0  0  0  0  0  0  0
   -5.1927   -4.6579    2.6816 C   0  0  0  0  0  0  0  0  0  0  0  0
    0.5605   -2.0835   -0.0599 C   0  0  0  0  0  0  0  0  0  0  0  0
   -4.2939   -2.4675    2.0931 C   0  0  0  0  0  0  0  0  0  0  0  0
   -1.5665   -1.2472    0.7934 C   0  0  0  0  0  0  0  0  0  0  0  0
   -4.0333   -5.2918    2.2310 C   0  0  0  0  0  0  0  0  0  0  0  0
    0.1920   -3.4011    0.2179 C   0  0  0  0  0  0  0  0  0  0  0  0
   -3.1436   -3.0961    1.6462 C   0  0  0  0  0  0  0  0  0  0  0  0
   -1.9322   -2.5541    1.0692 C   0  0  0  0  0  0  0  0  0  0  0  0
   -3.0198   -4.5019    1.7175 C   0  0  0  0  0  0  0  0  0  0  0  0
   -1.0528   -3.6217    0.7806 C   0  0  0  0  0  0  0  0  0  0  0  0
   -1.6781   -4.9443    1.1721 C   0  0  0  0  0  0  0  0  0  0  0  0
   -6.2342   -2.7894    2.9708 H   0  0  0  0  0  0  0  0  0  0  0  0
   -0.0000    0.0001   -0.0002 H   0  0  0  0  0  0  0  0  0  0  0  0
   -6.0064   -5.2511    3.0906 H   0  0  0  0  0  0  0  0  0  0  0  0
    1.5322   -1.8777   -0.5011 H   0  0  0  0  0  0  0  0  0  0  0  0
   -4.4083   -1.3898    2.0467 H   0  0  0  0  0  0  0  0  0  0  0  0
   -2.2271   -0.4135    1.0075 H   0  0  0  0  0  0  0  0  0  0  0  0
   -3.9348   -6.3702    2.2848 H   0  0  0  0  0  0  0  0  0  0  0  0
    0.8647   -4.2225   -0.0018 H   0  0  0  0  0  0  0  0  0  0  0  0
   -1.0871   -5.4370    1.9494 H   0  0  0  0  0  0  0  0  0  0  0  0
   -1.8093   -5.5849    0.2952 H   0  0  0  0  0  0  0  0  0  0  0  0
  1  3  1  0  0  0  0
  1  5  2  0  0  0  0
  2  4  1  0  0  0  0
  2  6  2  0  0  0  0
  3  7  2  0  0  0  0
  4  8  2  0  0  0  0
  5  9  1  0  0  0  0
  6 10  1  0  0  0  0
  7 11  1  0  0  0  0
  8 12  1  0  0  0  0
  9 10  1  0  0  0  0
  9 11  2  0  0  0  0
 10 12  2  0  0  0  0
 11 13  1  0  0  0  0
 12 13  1  0  0  0  0
  1 14  1  0  0  0  0
  2 15  1  0  0  0  0
  3 16  1  0  0  0  0
  4 17  1  0  0  0  0
  5 18  1  0  0  0  0
  6 19  1  0  0  0  0
  7 20  1  0  0  0  0
  8 21  1  0  0  0  0
 13 22  1  0  0  0  0
 13 23  1  0  0  0  0
M  END
$$$$
