caffeine
  -OEChem-10241310033D

 24 25  0     0  0  0  0  0  0999 V2000
    5.1110    0.7770   -0.9260 C   0  0  0  0  0  0  0  0  0  0  0  0
    3.6440    2.3850   -1.2370 C   0  0  0  0  0  0  0  0  0  0  0  0
    3.0450    1.2360   -0.7980 C   0  0  0  0  0  0  0  0  0  0  0  0
    2.9520    3.5990   -1.5260 C   0  0  0  0  0  0  0  0  0  0  0  0
    0.8630    2.2900   -0.8430 C   0  0  0  0  0  0  0  0  0  0  0  0
    6.0480    2.9530   -1.7320 C   0  0  0  0  0  0  0  0  0  0  0  0
    1.0820   -0.0910   -0.1250 C   0  0  0  0  0  0  0  0  0  0  0  0
    0.7180    4.6350   -1.5600 C   0  0  0  0  0  0  0  0  0  0  0  0
    3.9560    0.2330   -0.6040 N   0  0  0  0  0  0  0  0  0  0  0  0
    4.9730    2.0840   -1.3170 N   0  0  0  0  0  0  0  0  0  0  0  0
    1.6740    1.1550   -0.5930 N   0  0  0  0  0  0  0  0  0  0  0  0
    1.5560    3.4680   -1.3040 N   0  0  0  0  0  0  0  0  0  0  0  0
    3.5080    4.6220   -1.9180 O   0  0  0  0  0  0  0  0  0  0  0  0
   -0.3620    2.2780   -0.6770 O   0  0  0  0  0  0  0  0  0  0  0  0
    6.0710    0.2800   -0.8980 H   0  0  0  0  0  0  0  0  0  0  0  0
    6.1690    2.8480   -2.8130 H   0  0  0  0  0  0  0  0  0  0  0  0
    5.8010    3.9870   -1.4730 H   0  0  0  0  0  0  0  0  0  0  0  0
    6.9670    2.6640   -1.2130 H   0  0  0  0  0  0  0  0  0  0  0  0
    1.0570   -0.1080    0.9680 H   0  0  0  0  0  0  0  0  0  0  0  0
    1.6690   -0.9440   -0.4760 H   0  0  0  0  0  0  0  0  0  0  0  0
    0.0600   -0.1900   -0.5020 H   0  0  0  0  0  0  0  0  0  0  0  0
    0.3750    4.6310   -2.5980 H   0  0  0  0  0  0  0  0  0  0  0  0
    1.2830    5.5530   -1.3790 H   0  0  0  0  0  0  0  0  0  0  0  0
   -0.1550    4.6250   -0.9010 H   0  0  0  0  0  0  0  0  0  0  0  0
  1  9  2  0  0  0  0
  1 10  1  0  0  0  0
  2  3  2  0  0  0  0
  2  4  1  0  0  0  0
  2 10  1  0  0  0  0
  3  9  1  0  0  0  0
  3 11  1  0  0  0  0
  4 12  1  0  0  0  0
  4 13  2  0  0  0  0
  5 11  1  0  0  0  0
  5 12  1  0  0  0  0
  5 14  2  0  0  0  0
  6 10  1  0  0  0  0
  7 11  1  0  0  0  0
  8 12  1  0  0  0  0
  1 15  1  0  0  0  0
  6 16  1  0  0  0  0
  6 17  1  0  0  0  0
  6 18  1  0  0  0  0
  7 19  1  0  0  0  0
  7 20  1  0  0  0  0
  7 21  1  0  0  0  0
  8 22  1  0  0  0  0
  8 23  1  0  0  0  0
  8 24  1  0  0  0  0
M  END
$$$$
