Z_12_dichloroethene
  -OEChem-10241310033D

  6  5  0     0  0  0  0  0  0999 V2000
    2.0175   -0.6856   -0.1987 C   0  0  0  0  0  0  0  0  0  0  0  0
    0.7545   -0.5145   -0.5799 C   0  0  0  0  0  0  0  0  0  0  0  0
    2.6207   -0.0983    1.2927 Cl  0  0  0  0  0  0  0  0  0  0  0  0
   -0.3985    0.3104    0.3811 Cl  0  0  0  0  0  0  0  0  0  0  0  0
    2.7721   -1.2008   -0.7782 H   0  0  0  0  0  0  0  0  0  0  0  0
    0.3385   -0.8711   -1.5127 H   0  0  0  0  0  0  0  0  0  0  0  0
  1  2  2  0  0  0  0
  1  3  1  0  0  0  0
  2  4  1  0  0  0  0
  1  5  1  0  0  0  0
  2  6  1  0  0  0  0
M  END
$$$$
