m_cresol
  -OEChem-10241310033D

 16 16  0     0  0  0  0  0  0999 V2000
    0.8324   -0.3948    0.5751 C   0  0  0  0  0  0  0  0  0  0  0  0
    1.8991   -1.0135   -0.0768 C   0  0  0  0  0  0  0  0  0  0  0  0
    0.8349   -0.2829    1.9655 C   0  0  0  0  0  0  0  0  0  0  0  0
    2.9708   -1.4085    2.0522 C   0  0  0  0  0  0  0  0  0  0  0  0
    2.9683   -1.5204    0.6618 C   0  0  0  0  0  0  0  0  0  0  0  0
    1.9042   -0.7896    2.7040 C   0  0  0  0  0  0  0  0  0  0  0  0
    4.1088   -2.1816   -0.0352 C   0  0  0  0  0  0  0  0  0  0  0  0
    1.9063   -0.6804    4.0607 O   0  0  0  0  0  0  0  0  0  0  0  0
   -0.0005   -0.0006    0.0002 H   0  0  0  0  0  0  0  0  0  0  0  0
    1.8886   -1.0964   -1.1604 H   0  0  0  0  0  0  0  0  0  0  0  0
    0.0010    0.1999    2.4675 H   0  0  0  0  0  0  0  0  0  0  0  0
    3.8030   -1.8026    2.6305 H   0  0  0  0  0  0  0  0  0  0  0  0
    4.8778   -2.4794    0.6881 H   0  0  0  0  0  0  0  0  0  0  0  0
    3.7787   -3.0757   -0.5800 H   0  0  0  0  0  0  0  0  0  0  0  0
    4.5671   -1.5110   -0.7739 H   0  0  0  0  0  0  0  0  0  0  0  0
    1.2264   -0.0343    4.3256 H   0  0  0  0  0  0  0  0  0  0  0  0
  1  2  1  0  0  0  0
  1  3  2  0  0  0  0
  2  5  2  0  0  0  0
  3  6  1  0  0  0  0
  4  5  1  0  0  0  0
  4  6  2  0  0  0  0
  5  7  1  0  0  0  0
  6  8  1  0  0  0  0
  1  9  1  0  0  0  0
  2 10  1  0  0  0  0
  3 11  1  0  0  0  0
  4 12  1  0  0  0  0
  7 13  1  0  0  0  0
  7 14  1  0  0  0  0
  7 15  1  0  0  0  0
  8 16  1  0  0  0  0
M  END
$$$$
