4_cyanophenol
  -OEChem-10241310023D

 14 14  0     0  0  0  0  0  0999 V2000
    1.9049   -1.0682   -1.5334 C   0  0  0  0  0  0  0  0  0  0  0  0
    0.8178   -0.4385    0.5644 C   0  0  0  0  0  0  0  0  0  0  0  0
    2.9371   -1.5972    0.6197 C   0  0  0  0  0  0  0  0  0  0  0  0
    0.7994   -0.4058    1.9588 C   0  0  0  0  0  0  0  0  0  0  0  0
    2.9185   -1.5646    2.0141 C   0  0  0  0  0  0  0  0  0  0  0  0
    1.8867   -1.0341   -0.1051 C   0  0  0  0  0  0  0  0  0  0  0  0
    1.8497   -0.9689    2.6836 C   0  0  0  0  0  0  0  0  0  0  0  0
    1.9198   -1.0960   -2.6950 N   0  0  0  0  0  0  0  0  0  0  0  0
    1.8308   -0.9369    4.0444 O   0  0  0  0  0  0  0  0  0  0  0  0
   -0.0081    0.0057    0.0137 H   0  0  0  0  0  0  0  0  0  0  0  0
    3.7778   -2.0637    0.1119 H   0  0  0  0  0  0  0  0  0  0  0  0
   -0.0355    0.0599    2.4751 H   0  0  0  0  0  0  0  0  0  0  0  0
    3.7401   -2.0045    2.5731 H   0  0  0  0  0  0  0  0  0  0  0  0
    1.1748   -0.2771    4.3345 H   0  0  0  0  0  0  0  0  0  0  0  0
  1  6  1  0  0  0  0
  1  8  3  0  0  0  0
  2  4  1  0  0  0  0
  2  6  2  0  0  0  0
  3  5  2  0  0  0  0
  3  6  1  0  0  0  0
  4  7  2  0  0  0  0
  5  7  1  0  0  0  0
  7  9  1  0  0  0  0
  2 10  1  0  0  0  0
  3 11  1  0  0  0  0
  4 12  1  0  0  0  0
  5 13  1  0  0  0  0
  9 14  1  0  0  0  0
M  END
$$$$
