14_dioxane
  -OEChem-10241310033D

 14 14  0     0  0  0  0  0  0999 V2000
   -0.4849   -0.3534    0.9147 C   0  0  0  0  0  0  0  0  0  0  0  0
   -0.1538   -1.8156    1.1640 C   0  0  0  0  0  0  0  0  0  0  0  0
   -0.6065    0.0146    3.2349 C   0  0  0  0  0  0  0  0  0  0  0  0
   -0.2754   -1.4477    3.4842 C   0  0  0  0  0  0  0  0  0  0  0  0
   -0.0130    0.4406    2.0060 O   0  0  0  0  0  0  0  0  0  0  0  0
   -0.7474   -2.2416    2.3929 O   0  0  0  0  0  0  0  0  0  0  0  0
    0.0003   -0.0002   -0.0000 H   0  0  0  0  0  0  0  0  0  0  0  0
   -1.5657   -0.2031    0.8118 H   0  0  0  0  0  0  0  0  0  0  0  0
   -0.5487   -2.4416    0.3584 H   0  0  0  0  0  0  0  0  0  0  0  0
    0.9293   -1.9729    1.2233 H   0  0  0  0  0  0  0  0  0  0  0  0
   -1.6898    0.1714    3.1752 H   0  0  0  0  0  0  0  0  0  0  0  0
   -0.2123    0.6408    4.0406 H   0  0  0  0  0  0  0  0  0  0  0  0
    0.8057   -1.5977    3.5864 H   0  0  0  0  0  0  0  0  0  0  0  0
   -0.7597   -1.8010    4.3992 H   0  0  0  0  0  0  0  0  0  0  0  0
  1  2  1  0  0  0  0
  1  5  1  0  0  0  0
  2  6  1  0  0  0  0
  3  4  1  0  0  0  0
  3  5  1  0  0  0  0
  4  6  1  0  0  0  0
  1  7  1  0  0  0  0
  1  8  1  0  0  0  0
  2  9  1  0  0  0  0
  2 10  1  0  0  0  0
  3 11  1  0  0  0  0
  3 12  1  0  0  0  0
  4 13  1  0  0  0  0
  4 14  1  0  0  0  0
M  END
$$$$
