135_trichlorobenzene
  -OEChem-10241310023D

 12 12  0     0  0  0  0  0  0999 V2000
    1.8994   -1.0130   -0.0784 C   0  0  0  0  0  0  0  0  0  0  0  0
    0.8129   -0.3274    1.9678 C   0  0  0  0  0  0  0  0  0  0  0  0
    2.9471   -1.4565    2.0530 C   0  0  0  0  0  0  0  0  0  0  0  0
    0.8258   -0.4081    0.5753 C   0  0  0  0  0  0  0  0  0  0  0  0
    2.9600   -1.5372    0.6605 C   0  0  0  0  0  0  0  0  0  0  0  0
    1.8736   -0.8516    2.7066 C   0  0  0  0  0  0  0  0  0  0  0  0
   -0.4826    0.2387   -0.3368 Cl  0  0  0  0  0  0  0  0  0  0  0  0
    4.2844   -2.2835   -0.1463 Cl  0  0  0  0  0  0  0  0  0  0  0  0
    1.8571   -0.7527    4.4248 Cl  0  0  0  0  0  0  0  0  0  0  0  0
    1.9095   -1.0762   -1.1646 H   0  0  0  0  0  0  0  0  0  0  0  0
   -0.0242    0.1446    2.4781 H   0  0  0  0  0  0  0  0  0  0  0  0
    3.7746   -1.8650    2.6295 H   0  0  0  0  0  0  0  0  0  0  0  0
  1  4  1  0  0  0  0
  1  5  2  0  0  0  0
  2  4  2  0  0  0  0
  2  6  1  0  0  0  0
  3  5  1  0  0  0  0
  3  6  2  0  0  0  0
  4  7  1  0  0  0  0
  5  8  1  0  0  0  0
  6  9  1  0  0  0  0
  1 10  1  0  0  0  0
  2 11  1  0  0  0  0
  3 12  1  0  0  0  0
M  END
$$$$
