di_n_propyl_ether
  -OEChem-10241310033D

 21 20  0     0  0  0  0  0  0999 V2000
   -1.2014   -0.8990    2.8898 C   0  0  0  0  0  0  0  0  0  0  0  0
    6.0775   -2.0271    3.3154 C   0  0  0  0  0  0  0  0  0  0  0  0
    0.1100   -0.6530    3.6139 C   0  0  0  0  0  0  0  0  0  0  0  0
    4.8248   -1.4002    3.9005 C   0  0  0  0  0  0  0  0  0  0  0  0
    1.2749   -1.3494    2.9273 C   0  0  0  0  0  0  0  0  0  0  0  0
    3.5918   -1.7167    3.0680 C   0  0  0  0  0  0  0  0  0  0  0  0
    2.4629   -1.0899    3.6622 O   0  0  0  0  0  0  0  0  0  0  0  0
   -1.4356   -1.9678    2.8554 H   0  0  0  0  0  0  0  0  0  0  0  0
   -2.0211   -0.3883    3.4047 H   0  0  0  0  0  0  0  0  0  0  0  0
   -1.1588   -0.5231    1.8627 H   0  0  0  0  0  0  0  0  0  0  0  0
    6.2648   -1.6567    2.3025 H   0  0  0  0  0  0  0  0  0  0  0  0
    6.9479   -1.7831    3.9324 H   0  0  0  0  0  0  0  0  0  0  0  0
    5.9869   -3.1171    3.2717 H   0  0  0  0  0  0  0  0  0  0  0  0
    0.0333   -1.0004    4.6512 H   0  0  0  0  0  0  0  0  0  0  0  0
    0.3074    0.4242    3.6712 H   0  0  0  0  0  0  0  0  0  0  0  0
    4.9512   -0.3133    3.9724 H   0  0  0  0  0  0  0  0  0  0  0  0
    4.6760   -1.7543    4.9277 H   0  0  0  0  0  0  0  0  0  0  0  0
    1.1169   -2.4321    2.8914 H   0  0  0  0  0  0  0  0  0  0  0  0
    1.4076   -0.9751    1.9072 H   0  0  0  0  0  0  0  0  0  0  0  0
    3.7024   -1.3392    2.0465 H   0  0  0  0  0  0  0  0  0  0  0  0
    3.4117   -2.7959    3.0311 H   0  0  0  0  0  0  0  0  0  0  0  0
  1  3  1  0  0  0  0
  2  4  1  0  0  0  0
  3  5  1  0  0  0  0
  4  6  1  0  0  0  0
  5  7  1  0  0  0  0
  6  7  1  0  0  0  0
  1  8  1  0  0  0  0
  1  9  1  0  0  0  0
  1 10  1  0  0  0  0
  2 11  1  0  0  0  0
  2 12  1  0  0  0  0
  2 13  1  0  0  0  0
  3 14  1  0  0  0  0
  3 15  1  0  0  0  0
  4 16  1  0  0  0  0
  4 17  1  0  0  0  0
  5 18  1  0  0  0  0
  5 19  1  0  0  0  0
  6 20  1  0  0  0  0
  6 21  1  0  0  0  0
M  END
$$$$
