2_nitrotoluene
  -OEChem-10241310033D

 17 17  0     0  0  0  0  0  0999 V2000
    1.8846   -1.0376   -0.1090 C   0  0  0  0  0  0  0  0  0  0  0  0
    0.8176   -0.4410    0.5626 C   0  0  0  0  0  0  0  0  0  0  0  0
    2.9348   -1.6038    0.6137 C   0  0  0  0  0  0  0  0  0  0  0  0
    0.8008   -0.4105    1.9570 C   0  0  0  0  0  0  0  0  0  0  0  0
    2.9180   -1.5734    2.0082 C   0  0  0  0  0  0  0  0  0  0  0  0
    1.8509   -0.9767    2.6799 C   0  0  0  0  0  0  0  0  0  0  0  0
    4.0581   -2.1900    2.7528 C   0  0  0  0  0  0  0  0  0  0  0  0
    1.8117   -0.9358    4.1010 N   0  3  0  0  0  0  0  0  0  0  0  0
    0.8331   -0.3912    4.6646 O   0  5  0  0  0  0  0  0  0  0  0  0
    2.7566   -1.4459    4.7481 O   0  0  0  0  0  0  0  0  0  0  0  0
    1.8987   -1.0607   -1.1948 H   0  0  0  0  0  0  0  0  0  0  0  0
    0.0006    0.0002   -0.0005 H   0  0  0  0  0  0  0  0  0  0  0  0
    3.7616   -2.0668    0.0810 H   0  0  0  0  0  0  0  0  0  0  0  0
   -0.0382    0.0577    2.4663 H   0  0  0  0  0  0  0  0  0  0  0  0
    4.5612   -1.4353    3.3674 H   0  0  0  0  0  0  0  0  0  0  0  0
    3.7116   -2.9999    3.4057 H   0  0  0  0  0  0  0  0  0  0  0  0
    4.7907   -2.6258    2.0629 H   0  0  0  0  0  0  0  0  0  0  0  0
  1  2  1  0  0  0  0
  1  3  2  0  0  0  0
  2  4  2  0  0  0  0
  3  5  1  0  0  0  0
  4  6  1  0  0  0  0
  5  6  2  0  0  0  0
  5  7  1  0  0  0  0
  6  8  1  0  0  0  0
  8  9  1  0  0  0  0
  8 10  2  0  0  0  0
  1 11  1  0  0  0  0
  2 12  1  0  0  0  0
  3 13  1  0  0  0  0
  4 14  1  0  0  0  0
  7 15  1  0  0  0  0
  7 16  1  0  0  0  0
  7 17  1  0  0  0  0
M  CHG  2   8   1   9  -1
M  END
$$$$
