n_nonane
  -OEChem-10241310033D

 29 28  0     0  0  0  0  0  0999 V2000
    0.5781   -1.9172   -1.3095 C   0  0  0  0  0  0  0  0  0  0  0  0
    6.5713   -5.1293    6.1895 C   0  0  0  0  0  0  0  0  0  0  0  0
    0.8597   -1.8772    0.1844 C   0  0  0  0  0  0  0  0  0  0  0  0
    5.3769   -4.2632    5.8226 C   0  0  0  0  0  0  0  0  0  0  0  0
    2.0367   -2.7584    0.6084 C   0  0  0  0  0  0  0  0  0  0  0  0
    5.0788   -4.3249    4.3248 C   0  0  0  0  0  0  0  0  0  0  0  0
    2.3336   -2.6942    2.1083 C   0  0  0  0  0  0  0  0  0  0  0  0
    3.8560   -3.4790    3.9661 C   0  0  0  0  0  0  0  0  0  0  0  0
    3.5368   -3.5671    2.4727 C   0  0  0  0  0  0  0  0  0  0  0  0
    0.4344   -2.9458   -1.6555 H   0  0  0  0  0  0  0  0  0  0  0  0
   -0.3332   -1.3537   -1.5347 H   0  0  0  0  0  0  0  0  0  0  0  0
    1.3940   -1.4687   -1.8838 H   0  0  0  0  0  0  0  0  0  0  0  0
    6.7675   -5.0683    7.2644 H   0  0  0  0  0  0  0  0  0  0  0  0
    7.4716   -4.8004    5.6606 H   0  0  0  0  0  0  0  0  0  0  0  0
    6.3881   -6.1784    5.9365 H   0  0  0  0  0  0  0  0  0  0  0  0
    1.0381   -0.8411    0.4945 H   0  0  0  0  0  0  0  0  0  0  0  0
   -0.0369   -2.2172    0.7166 H   0  0  0  0  0  0  0  0  0  0  0  0
    5.5796   -3.2275    6.1195 H   0  0  0  0  0  0  0  0  0  0  0  0
    4.5014   -4.5985    6.3909 H   0  0  0  0  0  0  0  0  0  0  0  0
    1.8051   -3.7946    0.3325 H   0  0  0  0  0  0  0  0  0  0  0  0
    2.9315   -2.4734    0.0415 H   0  0  0  0  0  0  0  0  0  0  0  0
    5.9502   -3.9690    3.7618 H   0  0  0  0  0  0  0  0  0  0  0  0
    4.9054   -5.3663    4.0272 H   0  0  0  0  0  0  0  0  0  0  0  0
    1.4539   -3.0278    2.6721 H   0  0  0  0  0  0  0  0  0  0  0  0
    2.5384   -1.6599    2.4065 H   0  0  0  0  0  0  0  0  0  0  0  0
    4.0389   -2.4331    4.2415 H   0  0  0  0  0  0  0  0  0  0  0  0
    2.9904   -3.8196    4.5474 H   0  0  0  0  0  0  0  0  0  0  0  0
    3.3298   -4.6098    2.2026 H   0  0  0  0  0  0  0  0  0  0  0  0
    4.4104   -3.2491    1.8906 H   0  0  0  0  0  0  0  0  0  0  0  0
  1  3  1  0  0  0  0
  2  4  1  0  0  0  0
  3  5  1  0  0  0  0
  4  6  1  0  0  0  0
  5  7  1  0  0  0  0
  6  8  1  0  0  0  0
  7  9  1  0  0  0  0
  8  9  1  0  0  0  0
  1 10  1  0  0  0  0
  1 11  1  0  0  0  0
  1 12  1  0  0  0  0
  2 13  1  0  0  0  0
  2 14  1  0  0  0  0
  2 15  1  0  0  0  0
  3 16  1  0  0  0  0
  3 17  1  0  0  0  0
  4 18  1  0  0  0  0
  4 19  1  0  0  0  0
  5 20  1  0  0  0  0
  5 21  1  0  0  0  0
  6 22  1  0  0  0  0
  6 23  1  0  0  0  0
  7 24  1  0  0  0  0
  7 25  1  0  0  0  0
  8 26  1  0  0  0  0
  8 27  1  0  0  0  0
  9 28  1  0  0  0  0
  9 29  1  0  0  0  0
M  END
$$$$
