ethyl_acetate
  -OEChem-10241310033D

 14 13  0     0  0  0  0  0  0999 V2000
   -2.4436   -0.2296   -0.7731 C   0  0  0  0  0  0  0  0  0  0  0  0
   -1.6440   -0.2458    0.4943 C   0  0  0  0  0  0  0  0  0  0  0  0
   -1.8914    1.8641   -3.7227 C   0  0  0  0  0  0  0  0  0  0  0  0
   -2.5898    0.8104   -2.8899 C   0  0  0  0  0  0  0  0  0  0  0  0
   -3.4150   -0.9444   -0.9795 O   0  0  0  0  0  0  0  0  0  0  0  0
   -1.9187    0.6904   -1.6316 O   0  0  0  0  0  0  0  0  0  0  0  0
   -1.6904    0.7347    0.9747 H   0  0  0  0  0  0  0  0  0  0  0  0
   -0.6086   -0.5196    0.2762 H   0  0  0  0  0  0  0  0  0  0  0  0
   -2.0634   -0.9893    1.1783 H   0  0  0  0  0  0  0  0  0  0  0  0
   -2.3801    1.9809   -4.6940 H   0  0  0  0  0  0  0  0  0  0  0  0
   -1.8958    2.8297   -3.2063 H   0  0  0  0  0  0  0  0  0  0  0  0
   -0.8425    1.5948   -3.8851 H   0  0  0  0  0  0  0  0  0  0  0  0
   -2.5639   -0.1588   -3.3969 H   0  0  0  0  0  0  0  0  0  0  0  0
   -3.6313    1.0923   -2.7085 H   0  0  0  0  0  0  0  0  0  0  0  0
  1  2  1  0  0  0  0
  1  5  2  0  0  0  0
  1  6  1  0  0  0  0
  3  4  1  0  0  0  0
  4  6  1  0  0  0  0
  2  7  1  0  0  0  0
  2  8  1  0  0  0  0
  2  9  1  0  0  0  0
  3 10  1  0  0  0  0
  3 11  1  0  0  0  0
  3 12  1  0  0  0  0
  4 13  1  0  0  0  0
  4 14  1  0  0  0  0
M  END
$$$$
