24_dimethylpyridine
  -OEChem-10241310043D

 17 17  0     0  0  0  0  0  0999 V2000
    0.1834   -0.3460    1.0107 C   0  0  0  0  0  0  0  0  0  0  0  0
    1.5263   -0.4068    3.0052 C   0  0  0  0  0  0  0  0  0  0  0  0
   -0.7036   -1.1995    1.6468 C   0  0  0  0  0  0  0  0  0  0  0  0
    1.3172    0.0532    1.7098 C   0  0  0  0  0  0  0  0  0  0  0  0
    0.5791   -1.2576    3.5520 C   0  0  0  0  0  0  0  0  0  0  0  0
    2.3044    0.9709    1.0724 C   0  0  0  0  0  0  0  0  0  0  0  0
    0.7708   -1.7704    4.9402 C   0  0  0  0  0  0  0  0  0  0  0  0
   -0.5344   -1.6671    2.9040 N   0  0  0  0  0  0  0  0  0  0  0  0
   -0.0083   -0.0048   -0.0008 H   0  0  0  0  0  0  0  0  0  0  0  0
    2.4042   -0.1080    3.5691 H   0  0  0  0  0  0  0  0  0  0  0  0
   -1.6032   -1.5402    1.1448 H   0  0  0  0  0  0  0  0  0  0  0  0
    3.3259    0.6047    1.2330 H   0  0  0  0  0  0  0  0  0  0  0  0
    2.1311    1.0547   -0.0085 H   0  0  0  0  0  0  0  0  0  0  0  0
    2.2299    1.9856    1.4852 H   0  0  0  0  0  0  0  0  0  0  0  0
    1.5737   -1.2180    5.4431 H   0  0  0  0  0  0  0  0  0  0  0  0
   -0.1473   -1.6672    5.5326 H   0  0  0  0  0  0  0  0  0  0  0  0
    1.0298   -2.8369    4.9379 H   0  0  0  0  0  0  0  0  0  0  0  0
  1  3  1  0  0  0  0
  1  4  2  0  0  0  0
  2  4  1  0  0  0  0
  2  5  2  0  0  0  0
  3  8  2  0  0  0  0
  4  6  1  0  0  0  0
  5  7  1  0  0  0  0
  5  8  1  0  0  0  0
  1  9  1  0  0  0  0
  2 10  1  0  0  0  0
  3 11  1  0  0  0  0
  6 12  1  0  0  0  0
  6 13  1  0  0  0  0
  6 14  1  0  0  0  0
  7 15  1  0  0  0  0
  7 16  1  0  0  0  0
  7 17  1  0  0  0  0
M  END
$$$$
