propyl
  -OEChem-10241310033D

 25 25  0     0  0  0  0  0  0999 V2000
    3.0260   -0.3390    1.1230 C   0  0  0  0  0  0  0  0  0  0  0  0
    1.7370   -2.3500    0.7670 C   0  0  0  0  0  0  0  0  0  0  0  0
    1.9470    0.2340    1.7960 C   0  0  0  0  0  0  0  0  0  0  0  0
    0.6580   -1.7780    1.4400 C   0  0  0  0  0  0  0  0  0  0  0  0
    2.9210   -1.6310    0.6080 C   0  0  0  0  0  0  0  0  0  0  0  0
    0.7630   -0.4860    1.9550 C   0  0  0  0  0  0  0  0  0  0  0  0
    4.0460   -2.2280   -0.0940 C   0  0  0  0  0  0  0  0  0  0  0  0
    5.3270   -6.3740   -2.3610 C   0  0  0  0  0  0  0  0  0  0  0  0
    4.2760   -5.5690   -1.6180 C   0  0  0  0  0  0  0  0  0  0  0  0
    4.7890   -4.1910   -1.2290 C   0  0  0  0  0  0  0  0  0  0  0  0
    5.1330   -1.6660   -0.2810 O   0  0  0  0  0  0  0  0  0  0  0  0
   -0.2900    0.0730    2.6110 O   0  0  0  0  0  0  0  0  0  0  0  0
    3.7560   -3.4950   -0.5230 O   0  0  0  0  0  0  0  0  0  0  0  0
    3.9450    0.2310    1.0040 H   0  0  0  0  0  0  0  0  0  0  0  0
    1.6440   -3.3580    0.3690 H   0  0  0  0  0  0  0  0  0  0  0  0
    2.0350    1.2410    2.1950 H   0  0  0  0  0  0  0  0  0  0  0  0
   -0.2630   -2.3430    1.5600 H   0  0  0  0  0  0  0  0  0  0  0  0
    5.6570   -5.8490   -3.2630 H   0  0  0  0  0  0  0  0  0  0  0  0
    6.2010   -6.5360   -1.7230 H   0  0  0  0  0  0  0  0  0  0  0  0
    4.9350   -7.3520   -2.6560 H   0  0  0  0  0  0  0  0  0  0  0  0
    3.9580   -6.1110   -0.7190 H   0  0  0  0  0  0  0  0  0  0  0  0
    3.3780   -5.4650   -2.2400 H   0  0  0  0  0  0  0  0  0  0  0  0
    5.6650   -4.2690   -0.5770 H   0  0  0  0  0  0  0  0  0  0  0  0
    5.0570   -3.6090   -2.1170 H   0  0  0  0  0  0  0  0  0  0  0  0
   -1.0360   -0.5460    2.6400 H   0  0  0  0  0  0  0  0  0  0  0  0
  1  3  2  0  0  0  0
  1  5  1  0  0  0  0
  2  4  1  0  0  0  0
  2  5  2  0  0  0  0
  3  6  1  0  0  0  0
  4  6  2  0  0  0  0
  5  7  1  0  0  0  0
  6 12  1  0  0  0  0
  7 11  2  0  0  0  0
  7 13  1  0  0  0  0
  8  9  1  0  0  0  0
  9 10  1  0  0  0  0
 10 13  1  0  0  0  0
  1 14  1  0  0  0  0
  2 15  1  0  0  0  0
  3 16  1  0  0  0  0
  4 17  1  0  0  0  0
  8 18  1  0  0  0  0
  8 19  1  0  0  0  0
  8 20  1  0  0  0  0
  9 21  1  0  0  0  0
  9 22  1  0  0  0  0
 10 23  1  0  0  0  0
 10 24  1  0  0  0  0
 12 25  1  0  0  0  0
M  END
$$$$
